# Generated by Catalysthub (Web: http://www.catalysthub.net/)
data_Ge4Hf2 
_symmetry_space_group_name_H-M          'P 1'
_cell_length_a      3.785667 
_cell_length_b      3.821681 
_cell_length_c      7.730019 
_cell_angle_alpha     75.688270 
_cell_angle_beta     90.000000 
_cell_angle_gamma     90.000000 
loop_ 
  _space_group_symop_operation_xyz 
  'x, y, z' 
loop_ 
  _atom_site_fract_x
  _atom_site_fract_y
  _atom_site_fract_z
  _atom_site_type_symbol
  _atom_site_label
    0.750000     0.439159     0.121682 Ge Ge1
    0.250001     0.250185     0.499629 Ge Ge2
    0.750000     0.749814     0.500371 Ge Ge3
    0.250001     0.560840     0.878318 Ge Ge4
    0.250001     0.894915     0.210169 Hf Hf1
    0.750000     0.105084     0.789831 Hf Hf2
