# Generated by Catalysthub (Web: http://www.catalysthub.net/)
data_Ge8Mo4 
_symmetry_space_group_name_H-M          'P 1'
_cell_length_a      6.343000 
_cell_length_b      3.451000 
_cell_length_c      8.582000 
_cell_angle_alpha     90.000000 
_cell_angle_beta     90.000000 
_cell_angle_gamma     90.000000 
loop_ 
  _space_group_symop_operation_xyz 
  'x, y, z' 
loop_ 
  _atom_site_fract_x
  _atom_site_fract_y
  _atom_site_fract_z
  _atom_site_type_symbol
  _atom_site_label
    0.936901     0.250000     0.631900 Ge Ge1
    0.563099     0.750000     0.131900 Ge Ge2
    0.436901     0.250000     0.868100 Ge Ge3
    0.063099     0.750000     0.368100 Ge Ge4
    0.865001     0.250000     0.040700 Ge Ge5
    0.634999     0.750000     0.540700 Ge Ge6
    0.365001     0.250000     0.459300 Ge Ge7
    0.134999     0.750000     0.959300 Ge Ge8
    0.249800     0.250000     0.171600 Mo Mo1
    0.250200     0.750000     0.671600 Mo Mo2
    0.749800     0.250000     0.328400 Mo Mo3
    0.750200     0.750000     0.828400 Mo Mo4
