# Generated by Catalysthub (Web: http://www.catalysthub.net/)
data_Ge2Pd2Sr 
_symmetry_space_group_name_H-M          'P 1'
_cell_length_a      4.457517 
_cell_length_b      4.457517 
_cell_length_c      6.013484 
_cell_angle_alpha    111.754281 
_cell_angle_beta    111.754281 
_cell_angle_gamma     90.000000 
loop_ 
  _space_group_symop_operation_xyz 
  'x, y, z' 
loop_ 
  _atom_site_fract_x
  _atom_site_fract_y
  _atom_site_fract_z
  _atom_site_type_symbol
  _atom_site_label
    0.629179     0.629179     0.258357 Ge Ge1
    0.370822     0.370822     0.741644 Ge Ge2
    0.750001     0.250000     0.500000 Pd Pd1
    0.250000     0.750001     0.500000 Pd Pd2
    0.000000     0.000000     0.000000 Sr Sr1
