# Generated by Catalysthub (Web: http://www.catalysthub.net/)
data_Ge6Ta3 
_symmetry_space_group_name_H-M          'P 1'
_cell_length_a      4.938000 
_cell_length_b      4.938000 
_cell_length_c      6.730000 
_cell_angle_alpha     90.000000 
_cell_angle_beta     90.000000 
_cell_angle_gamma    120.000003 
loop_ 
  _space_group_symop_operation_xyz 
  'x, y, z' 
loop_ 
  _atom_site_fract_x
  _atom_site_fract_y
  _atom_site_fract_z
  _atom_site_type_symbol
  _atom_site_label
    0.164000     0.328000     0.500000 Ge Ge1
    0.836000     0.671999     0.500000 Ge Ge2
    0.672000     0.836000     0.166667 Ge Ge3
    0.164001     0.836000     0.833333 Ge Ge4
    0.836000     0.164001     0.833333 Ge Ge5
    0.328001     0.164001     0.166667 Ge Ge6
    0.500000     0.000000     0.500000 Ta Ta1
    0.000000     0.500001     0.166667 Ta Ta2
    0.500000     0.500001     0.833333 Ta Ta3
