# Generated by Catalysthub (Web: http://www.catalysthub.net/)
data_Ge4Y2 
_symmetry_space_group_name_H-M          'P 1'
_cell_length_a      4.048640 
_cell_length_b      4.048640 
_cell_length_c      8.294693 
_cell_angle_alpha    104.125701 
_cell_angle_beta    104.125701 
_cell_angle_gamma     90.000000 
loop_ 
  _space_group_symop_operation_xyz 
  'x, y, z' 
loop_ 
  _atom_site_fract_x
  _atom_site_fract_y
  _atom_site_fract_z
  _atom_site_type_symbol
  _atom_site_label
    0.579720     0.579720     0.159440 Ge Ge1
    0.670280     0.170280     0.340560 Ge Ge2
    0.829720     0.329720     0.659440 Ge Ge3
    0.420280     0.420280     0.840560 Ge Ge4
    0.000000     0.000000     0.000000 Y Y1
    0.250000     0.750000     0.500000 Y Y2
