# Generated by Catalysthub (Web: http://www.catalysthub.net/)
data_Ge4Zr2 
_symmetry_space_group_name_H-M          'P 1'
_cell_length_a      3.803216 
_cell_length_b      3.837812 
_cell_length_c      7.821967 
_cell_angle_alpha     75.799096 
_cell_angle_beta     90.000000 
_cell_angle_gamma     90.000000 
loop_ 
  _space_group_symop_operation_xyz 
  'x, y, z' 
loop_ 
  _atom_site_fract_x
  _atom_site_fract_y
  _atom_site_fract_z
  _atom_site_type_symbol
  _atom_site_label
    0.749999     0.440751     0.118500 Ge Ge1
    0.249999     0.250158     0.499686 Ge Ge2
    0.749999     0.749843     0.500314 Ge Ge3
    0.249999     0.559250     0.881500 Ge Ge4
    0.249999     0.895107     0.209784 Zr Zr1
    0.749999     0.104893     0.790216 Zr Zr2
