# Generated by Catalysthub (Web: http://www.catalysthub.net/)
data_Ge6Mo10 
_symmetry_space_group_name_H-M          'P 1'
_cell_length_a      7.447961 
_cell_length_b      7.447960 
_cell_length_c      5.150449 
_cell_angle_alpha     90.000000 
_cell_angle_beta     90.000000 
_cell_angle_gamma    119.976385 
loop_ 
  _space_group_symop_operation_xyz 
  'x, y, z' 
loop_ 
  _atom_site_fract_x
  _atom_site_fract_y
  _atom_site_fract_z
  _atom_site_type_symbol
  _atom_site_label
    0.605508    -0.000043     0.250000 Ge Ge1
   -0.000044     0.605507     0.250000 Ge Ge2
    0.394506     0.394506     0.250001 Ge Ge3
    0.394492     0.000044     0.749999 Ge Ge4
    0.000044     0.394493     0.749999 Ge Ge5
    0.605494     0.605495     0.750001 Ge Ge6
    0.666666     0.333333     0.000000 Mo Mo1
    0.333333     0.666666     0.000000 Mo Mo2
    0.230929     0.000012     0.249998 Mo Mo3
    0.000012     0.230929     0.249998 Mo Mo4
    0.768999     0.768999     0.250003 Mo Mo5
    0.666667     0.333335     0.499999 Mo Mo6
    0.333333     0.666666     0.499999 Mo Mo7
    0.769071    -0.000011     0.749999 Mo Mo8
   -0.000012     0.769071     0.749999 Mo Mo9
    0.231000     0.231000     0.750004 Mo Mo10
