# Generated by Catalysthub (Web: http://www.catalysthub.net/)
data_As2Pt2Sr2 
_symmetry_space_group_name_H-M          'P 1'
_cell_length_a      4.285638 
_cell_length_b      4.285421 
_cell_length_c      9.008065 
_cell_angle_alpha     90.000000 
_cell_angle_beta     90.000000 
_cell_angle_gamma    120.001674 
loop_ 
  _space_group_symop_operation_xyz 
  'x, y, z' 
loop_ 
  _atom_site_fract_x
  _atom_site_fract_y
  _atom_site_fract_z
  _atom_site_type_symbol
  _atom_site_label
    0.666685     0.333370     0.250000 As As1
    0.333315     0.666630     0.750000 As As2
    0.333315     0.666630     0.250000 Pt Pt1
    0.666685     0.333370     0.750000 Pt Pt2
    0.000000     0.000000     0.000000 Sr Sr1
    0.000000     0.000000     0.500000 Sr Sr2
