# Generated by Catalysthub (Web: http://www.catalysthub.net/)
data_Ge6Rh10 
_symmetry_space_group_name_H-M          'P 1'
_cell_length_a      5.420000 
_cell_length_b     10.320000 
_cell_length_c      3.960000 
_cell_angle_alpha     90.000000 
_cell_angle_beta     90.000000 
_cell_angle_gamma     90.000000 
loop_ 
  _space_group_symop_operation_xyz 
  'x, y, z' 
loop_ 
  _atom_site_fract_x
  _atom_site_fract_y
  _atom_site_fract_z
  _atom_site_type_symbol
  _atom_site_label
    0.388000     0.152000     0.500000 Ge Ge1
    0.612000     0.848000     0.500000 Ge Ge2
    0.888000     0.348000     0.500000 Ge Ge3
    0.112000     0.652000     0.500000 Ge Ge4
    0.000000     0.000000     0.000000 Ge Ge5
    0.500000     0.500000     0.000000 Ge Ge6
    0.000000     0.500000     0.000000 Rh Rh1
    0.500000     0.000000     0.000000 Rh Rh2
    0.330000     0.393000     0.500000 Rh Rh3
    0.670000     0.607000     0.500000 Rh Rh4
    0.830000     0.107000     0.500000 Rh Rh5
    0.170000     0.893000     0.500000 Rh Rh6
    0.152000     0.220000     0.000000 Rh Rh7
    0.848000     0.780000     0.000000 Rh Rh8
    0.652000     0.280000     0.000000 Rh Rh9
    0.348000     0.720000     0.000000 Rh Rh10
