# Generated by Catalysthub (Web: http://www.catalysthub.net/)
data_Be4Nb6 
_symmetry_space_group_name_H-M          'P 1'
_cell_length_a      6.490000 
_cell_length_b      6.490000 
_cell_length_c      3.350000 
_cell_angle_alpha     90.000000 
_cell_angle_beta     90.000000 
_cell_angle_gamma     90.000000 
loop_ 
  _space_group_symop_operation_xyz 
  'x, y, z' 
loop_ 
  _atom_site_fract_x
  _atom_site_fract_y
  _atom_site_fract_z
  _atom_site_type_symbol
  _atom_site_label
    0.383000     0.883000     0.000000 Be Be1
    0.617000     0.117000     0.000000 Be Be2
    0.883000     0.617000     0.000000 Be Be3
    0.117000     0.383000     0.000000 Be Be4
    0.179401     0.679401     0.500000 Nb Nb1
    0.820599     0.320599     0.500000 Nb Nb2
    0.679401     0.820599     0.500000 Nb Nb3
    0.320599     0.179401     0.500000 Nb Nb4
    0.000000     0.000000     0.000000 Nb Nb5
    0.500000     0.500000     0.000000 Nb Nb6
