# Generated by Catalysthub (Web: http://www.catalysthub.net/)
data_Ge4La3Pd4 
_symmetry_space_group_name_H-M          'P 1'
_cell_length_a     12.676697 
_cell_length_b     12.676697 
_cell_length_c     12.676697 
_cell_angle_alpha    161.586831 
_cell_angle_beta    160.584956 
_cell_angle_gamma     26.882098 
loop_ 
  _space_group_symop_operation_xyz 
  'x, y, z' 
loop_ 
  _atom_site_fract_x
  _atom_site_fract_y
  _atom_site_fract_z
  _atom_site_type_symbol
  _atom_site_label
    0.450992     0.450992     0.000000 Ge Ge1
    0.549008     0.549008     0.000000 Ge Ge2
    0.194793     0.694792     0.499999 Ge Ge3
    0.805207     0.305207     0.500000 Ge Ge4
    0.000000     0.000000     0.000000 La La1
    0.353150     0.853149     0.499999 La La2
    0.646851     0.146851     0.500000 La La3
    0.250788     0.250788     0.000000 Pd Pd1
    0.749211     0.749211     0.000000 Pd Pd2
    0.096746     0.596745     0.499999 Pd Pd3
    0.903254     0.403254     0.500000 Pd Pd4
