# Generated by Catalysthub (Web: http://www.catalysthub.net/)
data_Hf3Os3P3 
_symmetry_space_group_name_H-M          'P 1'
_cell_length_a      6.408703 
_cell_length_b      6.408703 
_cell_length_c      3.845658 
_cell_angle_alpha     90.000000 
_cell_angle_beta     90.000000 
_cell_angle_gamma    120.002159 
loop_ 
  _space_group_symop_operation_xyz 
  'x, y, z' 
loop_ 
  _atom_site_fract_x
  _atom_site_fract_y
  _atom_site_fract_z
  _atom_site_type_symbol
  _atom_site_label
    0.583535     0.000020     0.500000 Hf Hf1
    0.416491     0.416491     0.500000 Hf Hf2
    0.000019     0.583535     0.500000 Hf Hf3
    0.248314     0.000016     0.000000 Os Os1
    0.000016     0.248315     0.000000 Os Os2
    0.751703     0.751703     0.000000 Os Os3
    0.666680     0.333347     0.000000 P P1
    0.333348     0.666680     0.000000 P P2
   -0.000006    -0.000005     0.500000 P P3
