# Generated by Catalysthub (Web: http://www.catalysthub.net/)
data_Hf4Os8 
_symmetry_space_group_name_H-M          'P 1'
_cell_length_a      5.057730 
_cell_length_b      5.057732 
_cell_length_c      8.264154 
_cell_angle_alpha     90.000064 
_cell_angle_beta     90.000083 
_cell_angle_gamma    120.000750 
loop_ 
  _space_group_symop_operation_xyz 
  'x, y, z' 
loop_ 
  _atom_site_fract_x
  _atom_site_fract_y
  _atom_site_fract_z
  _atom_site_type_symbol
  _atom_site_label
    0.333331     0.666670     0.433909 Hf Hf1
    0.666633     0.333330     0.933910 Hf Hf2
    0.666669     0.333331     0.566091 Hf Hf3
    0.333311     0.666669     0.066091 Hf Hf4
    0.655558     0.827790     0.749999 Os Os1
    0.172229     0.827759     0.750000 Os Os2
    0.827759     0.172238     0.249999 Os Os3
   -0.000003     0.000001     0.499999 Os Os4
   -0.000014    -0.000000     0.000001 Os Os5
    0.344440     0.172216     0.250002 Os Os6
    0.172202     0.344437     0.750002 Os Os7
    0.827783     0.655559     0.249998 Os Os8
