# Generated by Catalysthub (Web: http://www.catalysthub.net/)
data_Hf3P3Ru3 
_symmetry_space_group_name_H-M          'P 1'
_cell_length_a      6.385587 
_cell_length_b      6.385529 
_cell_length_c      3.735165 
_cell_angle_alpha     90.000000 
_cell_angle_beta     90.000000 
_cell_angle_gamma    120.000303 
loop_ 
  _space_group_symop_operation_xyz 
  'x, y, z' 
loop_ 
  _atom_site_fract_x
  _atom_site_fract_y
  _atom_site_fract_z
  _atom_site_type_symbol
  _atom_site_label
    0.584259     0.000000     0.499999 Hf Hf1
    0.999984     0.584252     0.499999 Hf Hf2
    0.415733     0.415748     0.499999 Hf Hf3
    0.333317     0.666682     0.000000 P P1
    0.666635     0.333317     0.000000 P P2
    0.000002     0.000000     0.499999 P P3
    0.246291     0.000000     0.000000 Ru Ru1
    0.999991     0.246305     0.000000 Ru Ru2
    0.753686     0.753694     0.000000 Ru Ru3
