# Generated by Catalysthub (Web: http://www.catalysthub.net/)
data_Hf4Re8 
_symmetry_space_group_name_H-M          'P 1'
_cell_length_a      5.068475 
_cell_length_b      5.068483 
_cell_length_c      8.282116 
_cell_angle_alpha     90.000038 
_cell_angle_beta     89.999935 
_cell_angle_gamma    120.000986 
loop_ 
  _space_group_symop_operation_xyz 
  'x, y, z' 
loop_ 
  _atom_site_fract_x
  _atom_site_fract_y
  _atom_site_fract_z
  _atom_site_type_symbol
  _atom_site_label
    0.333316     0.666685     0.437554 Hf Hf1
    0.666621     0.333316     0.937554 Hf Hf2
    0.666687     0.333313     0.562445 Hf Hf3
    0.333306     0.666685     0.062445 Hf Hf4
    0.656942     0.828473     0.750000 Re Re1
    0.171529     0.828459     0.750000 Re Re2
    0.828463     0.171537     0.249999 Re Re3
    0.343055     0.171530     0.250001 Re Re4
    0.171519     0.343057     0.750002 Re Re5
    0.828466     0.656941     0.249999 Re Re6
    0.000002     0.000000     0.500000 Re Re7
   -0.000010    -0.000000     0.000000 Re Re8
