# Generated by Catalysthub (Web: http://www.catalysthub.net/)
data_Hf4Rh4Si4 
_symmetry_space_group_name_H-M          'P 1'
_cell_length_a      6.480000 
_cell_length_b      3.906900 
_cell_length_c      7.411000 
_cell_angle_alpha     90.000000 
_cell_angle_beta     90.000000 
_cell_angle_gamma     90.000000 
loop_ 
  _space_group_symop_operation_xyz 
  'x, y, z' 
loop_ 
  _atom_site_fract_x
  _atom_site_fract_y
  _atom_site_fract_z
  _atom_site_type_symbol
  _atom_site_label
    0.020140     0.249999     0.684550 Hf Hf1
    0.479860     0.749999     0.184550 Hf Hf2
    0.520140     0.249999     0.815450 Hf Hf3
    0.979860     0.749999     0.315450 Hf Hf4
    0.150201     0.249999     0.065300 Rh Rh1
    0.349799     0.749999     0.565300 Rh Rh2
    0.650201     0.249999     0.434700 Rh Rh3
    0.849799     0.749999     0.934700 Rh Rh4
    0.274299     0.249999     0.381500 Si Si1
    0.225701     0.749999     0.881500 Si Si2
    0.774299     0.249999     0.118500 Si Si3
    0.725701     0.749999     0.618500 Si Si4
