# Generated by Catalysthub (Web: http://www.catalysthub.net/)
data_HgIn 
_symmetry_space_group_name_H-M          'P 1'
_cell_length_a      3.626141 
_cell_length_b      3.626141 
_cell_length_c      4.915835 
_cell_angle_alpha     68.356982 
_cell_angle_beta    111.643014 
_cell_angle_gamma    119.999999 
loop_ 
  _space_group_symop_operation_xyz 
  'x, y, z' 
loop_ 
  _atom_site_fract_x
  _atom_site_fract_y
  _atom_site_fract_z
  _atom_site_type_symbol
  _atom_site_label
    0.000000     0.000000     0.000000 Hg Hg1
    0.500001     0.500001     0.499999 In In1
