# Generated by Catalysthub (Web: http://www.catalysthub.net/)
data_InLa3 
_symmetry_space_group_name_H-M          'P 1'
_cell_length_a      5.059647 
_cell_length_b      5.059647 
_cell_length_c      5.059647 
_cell_angle_alpha     90.000000 
_cell_angle_beta     90.000000 
_cell_angle_gamma     90.000000 
loop_ 
  _space_group_symop_operation_xyz 
  'x, y, z' 
loop_ 
  _atom_site_fract_x
  _atom_site_fract_y
  _atom_site_fract_z
  _atom_site_type_symbol
  _atom_site_label
    0.000000     0.000000     0.000000 In In1
    0.499999     0.499999     0.000000 La La1
    0.499999     0.000000     0.499999 La La2
    0.000000     0.499999     0.499999 La La3
