# Generated by Catalysthub (Web: http://www.catalysthub.net/)
data_As3Ru3Zr3 
_symmetry_space_group_name_H-M          'P 1'
_cell_length_a      6.586000 
_cell_length_b      6.586000 
_cell_length_c      3.891000 
_cell_angle_alpha     90.000000 
_cell_angle_beta     90.000000 
_cell_angle_gamma    120.000001 
loop_ 
  _space_group_symop_operation_xyz 
  'x, y, z' 
loop_ 
  _atom_site_fract_x
  _atom_site_fract_y
  _atom_site_fract_z
  _atom_site_type_symbol
  _atom_site_label
    0.000000     0.000000     0.500000 As As1
    0.333300     0.666700     0.000000 As As2
    0.666600     0.333299     0.000000 As As3
    0.245000     0.000000     0.000000 Ru Ru1
    0.000001     0.245000     0.000000 Ru Ru2
    0.755001     0.755000     0.000000 Ru Ru3
    0.583999     0.000000     0.500000 Zr Zr1
    0.000001     0.584000     0.500000 Zr Zr2
    0.416001     0.416001     0.500000 Zr Zr3
