# Generated by Catalysthub (Web: http://www.catalysthub.net/)
data_In2Mg4 
_symmetry_space_group_name_H-M          'P 1'
_cell_length_a      5.302828 
_cell_length_b      5.624498 
_cell_length_c      5.624499 
_cell_angle_alpha     60.000013 
_cell_angle_beta     90.000000 
_cell_angle_gamma     90.000000 
loop_ 
  _space_group_symop_operation_xyz 
  'x, y, z' 
loop_ 
  _atom_site_fract_x
  _atom_site_fract_y
  _atom_site_fract_z
  _atom_site_type_symbol
  _atom_site_label
    0.500000     0.666667     0.333333 In In1
    0.500000     0.000000     0.666667 In In2
    0.000000     0.000000     0.000000 Mg Mg1
    0.500000     0.333333     0.000000 Mg Mg2
    0.000000     0.333333     0.333333 Mg Mg3
    0.000000     0.666667     0.666667 Mg Mg4
