# Generated by Catalysthub (Web: http://www.catalysthub.net/)
data_In2Nb6 
_symmetry_space_group_name_H-M          'P 1'
_cell_length_a      5.326449 
_cell_length_b      5.326449 
_cell_length_c      5.326449 
_cell_angle_alpha     90.000000 
_cell_angle_beta     90.000000 
_cell_angle_gamma     90.000000 
loop_ 
  _space_group_symop_operation_xyz 
  'x, y, z' 
loop_ 
  _atom_site_fract_x
  _atom_site_fract_y
  _atom_site_fract_z
  _atom_site_type_symbol
  _atom_site_label
    0.000000     0.000000     0.000000 In In1
    0.499999     0.499999     0.499999 In In2
    0.499999     0.250000     0.000000 Nb Nb1
    0.499999     0.750001     0.000000 Nb Nb2
    0.000000     0.499999     0.250000 Nb Nb3
    0.250000     0.000000     0.499999 Nb Nb4
    0.750001     0.000000     0.499999 Nb Nb5
    0.000000     0.499999     0.750001 Nb Nb6
