# Generated by Catalysthub (Web: http://www.catalysthub.net/)
data_Ir2Mo6 
_symmetry_space_group_name_H-M          'P 1'
_cell_length_a      4.995271 
_cell_length_b      4.995271 
_cell_length_c      4.995271 
_cell_angle_alpha     90.000000 
_cell_angle_beta     90.000000 
_cell_angle_gamma     90.000000 
loop_ 
  _space_group_symop_operation_xyz 
  'x, y, z' 
loop_ 
  _atom_site_fract_x
  _atom_site_fract_y
  _atom_site_fract_z
  _atom_site_type_symbol
  _atom_site_label
    0.000000     0.000000     0.000000 Ir Ir1
    0.500001     0.500001     0.500001 Ir Ir2
    0.500001     0.250000     0.000000 Mo Mo1
    0.500001     0.749999     0.000000 Mo Mo2
    0.000000     0.500001     0.250000 Mo Mo3
    0.250000     0.000000     0.500001 Mo Mo4
    0.749999     0.000000     0.500001 Mo Mo5
    0.000000     0.500001     0.749999 Mo Mo6
