# Generated by Catalysthub (Web: http://www.catalysthub.net/)
data_Be4Ta6 
_symmetry_space_group_name_H-M          'P 1'
_cell_length_a      6.506660 
_cell_length_b      6.506660 
_cell_length_c      3.353780 
_cell_angle_alpha     90.000000 
_cell_angle_beta     90.000000 
_cell_angle_gamma     90.000000 
loop_ 
  _space_group_symop_operation_xyz 
  'x, y, z' 
loop_ 
  _atom_site_fract_x
  _atom_site_fract_y
  _atom_site_fract_z
  _atom_site_type_symbol
  _atom_site_label
    0.613857     0.113857     0.000000 Be Be1
    0.113857     0.386143     0.000000 Be Be2
    0.886143     0.613857     0.000000 Be Be3
    0.386143     0.886143     0.000000 Be Be4
    0.000000     0.000000     0.000000 Ta Ta1
    0.500000     0.500000     0.000000 Ta Ta2
    0.321226     0.178774     0.500000 Ta Ta3
    0.821226     0.321226     0.500000 Ta Ta4
    0.178774     0.678774     0.500000 Ta Ta5
    0.678774     0.821226     0.500000 Ta Ta6
