# Generated by Catalysthub (Web: http://www.catalysthub.net/)
data_IrNb 
_symmetry_space_group_name_H-M          'P 1'
_cell_length_a      2.872259 
_cell_length_b      2.872259 
_cell_length_c      3.894118 
_cell_angle_alpha     90.000000 
_cell_angle_beta     90.000000 
_cell_angle_gamma     90.000000 
loop_ 
  _space_group_symop_operation_xyz 
  'x, y, z' 
loop_ 
  _atom_site_fract_x
  _atom_site_fract_y
  _atom_site_fract_z
  _atom_site_type_symbol
  _atom_site_label
    0.000000     0.000000     0.000000 Ir Ir1
    0.499999     0.499999     0.500000 Nb Nb1
