# Generated by Catalysthub (Web: http://www.catalysthub.net/)
data_Ir4Lu2 
_symmetry_space_group_name_H-M          'P 1'
_cell_length_a      5.295784 
_cell_length_b      5.295784 
_cell_length_c      5.295784 
_cell_angle_alpha    120.000000 
_cell_angle_beta     90.000000 
_cell_angle_gamma    120.000000 
loop_ 
  _space_group_symop_operation_xyz 
  'x, y, z' 
loop_ 
  _atom_site_fract_x
  _atom_site_fract_y
  _atom_site_fract_z
  _atom_site_type_symbol
  _atom_site_label
    0.375000     0.749999     0.125000 Ir Ir1
    0.375000     0.250000     0.624999 Ir Ir2
    0.375000     0.749999     0.624999 Ir Ir3
    0.875000     0.250000     0.625001 Ir Ir4
    0.000000     0.000000     0.000000 Lu Lu1
    0.749999     0.499999     0.250000 Lu Lu2
