# Generated by Catalysthub (Web: http://www.catalysthub.net/)
data_As2BaFe2 
_symmetry_space_group_name_H-M          'P 1'
_cell_length_a      3.967264 
_cell_length_b      3.967264 
_cell_length_c      6.885904 
_cell_angle_alpha    106.742527 
_cell_angle_beta    106.742527 
_cell_angle_gamma     90.000000 
loop_ 
  _space_group_symop_operation_xyz 
  'x, y, z' 
loop_ 
  _atom_site_fract_x
  _atom_site_fract_y
  _atom_site_fract_z
  _atom_site_type_symbol
  _atom_site_label
    0.654949     0.654949     0.309899 As As1
    0.345051     0.345051     0.690101 As As2
    0.000000     0.000000     0.000000 Ba Ba1
    0.749999     0.250000     0.499999 Fe Fe1
    0.250000     0.749999     0.499999 Fe Fe2
