# Generated by Catalysthub (Web: http://www.catalysthub.net/)
data_Ir4Sr2 
_symmetry_space_group_name_H-M          'P 1'
_cell_length_a      5.484449 
_cell_length_b      5.484449 
_cell_length_c      5.484449 
_cell_angle_alpha    120.000000 
_cell_angle_beta     90.000000 
_cell_angle_gamma    120.000000 
loop_ 
  _space_group_symop_operation_xyz 
  'x, y, z' 
loop_ 
  _atom_site_fract_x
  _atom_site_fract_y
  _atom_site_fract_z
  _atom_site_type_symbol
  _atom_site_label
    0.375000     0.750000     0.125001 Ir Ir1
    0.375000     0.750000     0.624999 Ir Ir2
    0.375000     0.249999     0.624999 Ir Ir3
    0.874999     0.249999     0.624999 Ir Ir4
    0.000000     0.000000     0.000000 Sr Sr1
    0.750002     0.500001     0.250001 Sr Sr2
