# Generated by Catalysthub (Web: http://www.catalysthub.net/)
data_K2O12Os4 
_symmetry_space_group_name_H-M          'P 1'
_cell_length_a      7.079363 
_cell_length_b      7.079363 
_cell_length_c      7.079363 
_cell_angle_alpha     60.000000 
_cell_angle_beta     60.000000 
_cell_angle_gamma     60.000000 
loop_ 
  _space_group_symop_operation_xyz 
  'x, y, z' 
loop_ 
  _atom_site_fract_x
  _atom_site_fract_y
  _atom_site_fract_z
  _atom_site_type_symbol
  _atom_site_label
    0.250000     0.250000     0.250000 K K1
    0.499999     0.499999     0.499999 K K2
    0.805101     0.805101     0.194898 O O1
    0.805101     0.194898     0.805101 O O2
    0.194898     0.805101     0.805101 O O3
    0.805100     0.194899     0.194899 O O4
    0.944934     0.944934     0.555067 O O5
    0.944934     0.555067     0.944934 O O6
    0.555066     0.555066     0.944935 O O7
    0.555066     0.944935     0.555066 O O8
    0.555067     0.944934     0.944934 O O9
    0.944935     0.555066     0.555066 O O10
    0.194899     0.194899     0.805100 O O11
    0.194899     0.805100     0.194899 O O12
    0.874997     0.375009     0.874997 Os Os1
    0.375009     0.874997     0.874997 Os Os2
    0.874997     0.874997     0.375009 Os Os3
    0.874997     0.874997     0.874997 Os Os4
