# Generated by Catalysthub (Web: http://www.catalysthub.net/)
data_LaMo6S8 
_symmetry_space_group_name_H-M          'P 1'
_cell_length_a      6.509084 
_cell_length_b      6.509084 
_cell_length_c      6.509084 
_cell_angle_alpha     88.943793 
_cell_angle_beta     88.943793 
_cell_angle_gamma     88.943798 
loop_ 
  _space_group_symop_operation_xyz 
  'x, y, z' 
loop_ 
  _atom_site_fract_x
  _atom_site_fract_y
  _atom_site_fract_z
  _atom_site_type_symbol
  _atom_site_label
    0.000000     0.000000     0.000000 La La1
    0.562000     0.423000     0.236000 Mo Mo1
    0.236000     0.562000     0.423000 Mo Mo2
    0.423000     0.236000     0.562000 Mo Mo3
    0.438000     0.577000     0.763999 Mo Mo4
    0.764000     0.438000     0.577000 Mo Mo5
    0.577000     0.764000     0.438000 Mo Mo6
    0.120000     0.379000     0.753001 S S1
    0.753000     0.120000     0.379001 S S2
    0.379000     0.753000     0.120001 S S3
    0.880000     0.621000     0.246999 S S4
    0.247000     0.880000     0.620999 S S5
    0.621000     0.247000     0.879999 S S6
    0.243000     0.243000     0.243000 S S7
    0.757000     0.757000     0.757000 S S8
