# Generated by Catalysthub (Web: http://www.catalysthub.net/)
data_LaMo6Se8 
_symmetry_space_group_name_H-M          'P 1'
_cell_length_a      6.777261 
_cell_length_b      6.777261 
_cell_length_c      6.777261 
_cell_angle_alpha     88.544663 
_cell_angle_beta     88.544663 
_cell_angle_gamma     88.544665 
loop_ 
  _space_group_symop_operation_xyz 
  'x, y, z' 
loop_ 
  _atom_site_fract_x
  _atom_site_fract_y
  _atom_site_fract_z
  _atom_site_type_symbol
  _atom_site_label
    0.000000     0.000000     0.000000 La La1
    0.561001     0.423000     0.234000 Mo Mo1
    0.234000     0.561001     0.423000 Mo Mo2
    0.423000     0.234000     0.561000 Mo Mo3
    0.438999     0.577000     0.766000 Mo Mo4
    0.766000     0.438999     0.577000 Mo Mo5
    0.577000     0.766000     0.439000 Mo Mo6
    0.238000     0.238000     0.238000 Se Se1
    0.762000     0.762000     0.762000 Se Se2
    0.122000     0.373999     0.756000 Se Se3
    0.756000     0.122000     0.374000 Se Se4
    0.374000     0.756000     0.122000 Se Se5
    0.878000     0.626001     0.244000 Se Se6
    0.244000     0.878000     0.626000 Se Se7
    0.626000     0.244000     0.878000 Se Se8
