# Generated by Catalysthub (Web: http://www.catalysthub.net/)
data_As2CaFe2 
_symmetry_space_group_name_H-M          'P 1'
_cell_length_a      3.978363 
_cell_length_b      3.978363 
_cell_length_c      5.905749 
_cell_angle_alpha    109.683321 
_cell_angle_beta    109.683321 
_cell_angle_gamma     90.000000 
loop_ 
  _space_group_symop_operation_xyz 
  'x, y, z' 
loop_ 
  _atom_site_fract_x
  _atom_site_fract_y
  _atom_site_fract_z
  _atom_site_type_symbol
  _atom_site_label
    0.637761     0.637761     0.275523 As As1
    0.362238     0.362238     0.724476 As As2
    0.000000     0.000000     0.000000 Ca Ca1
    0.749999     0.250000     0.500000 Fe Fe1
    0.250000     0.749999     0.500000 Fe Fe2
