# Generated by Catalysthub (Web: http://www.catalysthub.net/)
data_BiIn2 
_symmetry_space_group_name_H-M          'P 1'
_cell_length_a      3.300314 
_cell_length_b      5.477348 
_cell_length_c      5.477301 
_cell_angle_alpha    120.000288 
_cell_angle_beta     90.000000 
_cell_angle_gamma     90.000000 
loop_ 
  _space_group_symop_operation_xyz 
  'x, y, z' 
loop_ 
  _atom_site_fract_x
  _atom_site_fract_y
  _atom_site_fract_z
  _atom_site_type_symbol
  _atom_site_label
    0.000000     0.000000     0.000000 Bi Bi1
    0.500001     0.666687     0.333376 In In1
    0.500001     0.333312     0.666624 In In2
