# Generated by Catalysthub (Web: http://www.catalysthub.net/)
data_LaP12Ru4 
_symmetry_space_group_name_H-M          'P 1'
_cell_length_a      7.019875 
_cell_length_b      7.019875 
_cell_length_c      7.019875 
_cell_angle_alpha    109.471221 
_cell_angle_beta    109.471221 
_cell_angle_gamma    109.471221 
loop_ 
  _space_group_symop_operation_xyz 
  'x, y, z' 
loop_ 
  _atom_site_fract_x
  _atom_site_fract_y
  _atom_site_fract_z
  _atom_site_type_symbol
  _atom_site_label
    0.000000     0.000000     0.000000 La La1
    0.501995     0.358009     0.143986 P P1
    0.785976     0.641990     0.143986 P P2
    0.358009     0.856015     0.214023 P P3
    0.143986     0.501995     0.358009 P P4
    0.856015     0.214023     0.358009 P P5
    0.641992     0.856015     0.498006 P P6
    0.358009     0.143986     0.501995 P P7
    0.143986     0.785976     0.641990 P P8
    0.856015     0.498006     0.641992 P P9
    0.641990     0.143986     0.785976 P P10
    0.214023     0.358009     0.856015 P P11
    0.498006     0.641992     0.856015 P P12
    0.499999     0.000000     0.000000 Ru Ru1
    0.000000     0.499999     0.000000 Ru Ru2
    0.000000     0.000000     0.499999 Ru Ru3
    0.499999     0.499999     0.499999 Ru Ru4
