# Generated by Catalysthub (Web: http://www.catalysthub.net/)
data_La6Rh18 
_symmetry_space_group_name_H-M          'P 1'
_cell_length_a      5.335448 
_cell_length_b      5.335439 
_cell_length_c     17.742709 
_cell_angle_alpha     90.000000 
_cell_angle_beta     90.000000 
_cell_angle_gamma    120.000053 
loop_ 
  _space_group_symop_operation_xyz 
  'x, y, z' 
loop_ 
  _atom_site_fract_x
  _atom_site_fract_y
  _atom_site_fract_z
  _atom_site_type_symbol
  _atom_site_label
    0.666666     0.333334     0.042209 La La1
    0.666673     0.333347     0.250000 La La2
    0.666666     0.333334     0.457791 La La3
    0.333333     0.666665     0.542209 La La4
    0.333327     0.666655     0.750000 La La5
    0.333333     0.666665     0.957791 La La6
    0.000000     0.000000     0.000000 Rh Rh1
    0.166692     0.333384     0.128022 Rh Rh2
    0.166701     0.833318     0.128027 Rh Rh3
    0.666618     0.833318     0.128027 Rh Rh4
    0.000000     0.000000     0.250000 Rh Rh5
    0.333325     0.666650     0.250000 Rh Rh6
    0.166701     0.833318     0.371973 Rh Rh7
    0.666618     0.833318     0.371973 Rh Rh8
    0.166692     0.333384     0.371978 Rh Rh9
    0.000000     0.000000     0.500000 Rh Rh10
    0.833308     0.666618     0.628022 Rh Rh11
    0.333384     0.166683     0.628027 Rh Rh12
    0.833299     0.166683     0.628027 Rh Rh13
    0.000000     0.000000     0.750000 Rh Rh14
    0.666674     0.333349     0.750000 Rh Rh15
    0.333384     0.166683     0.871973 Rh Rh16
    0.833299     0.166683     0.871973 Rh Rh17
    0.833308     0.666618     0.871978 Rh Rh18
