# Generated by Catalysthub (Web: http://www.catalysthub.net/)
data_LaRu3Si2 
_symmetry_space_group_name_H-M          'P 1'
_cell_length_a      5.716743 
_cell_length_b      5.716743 
_cell_length_c      3.590201 
_cell_angle_alpha     90.000000 
_cell_angle_beta     90.000000 
_cell_angle_gamma    119.999909 
loop_ 
  _space_group_symop_operation_xyz 
  'x, y, z' 
loop_ 
  _atom_site_fract_x
  _atom_site_fract_y
  _atom_site_fract_z
  _atom_site_type_symbol
  _atom_site_label
    0.000003     0.000002     0.000000 La La1
    0.500004     0.000008     0.500000 Ru Ru1
    0.499998     0.499999     0.500000 Ru Ru2
    0.000008     0.500003     0.500000 Ru Ru3
    0.666697     0.333391     0.000000 Si Si1
    0.333392     0.666698     0.000000 Si Si2
