# Generated by Catalysthub (Web: http://www.catalysthub.net/)
data_La4Rh6Si10 
_symmetry_space_group_name_H-M          'P 1'
_cell_length_a      8.283133 
_cell_length_b      8.283133 
_cell_length_c      8.283133 
_cell_angle_alpha    106.223534 
_cell_angle_beta     88.306016 
_cell_angle_gamma    138.605606 
loop_ 
  _space_group_symop_operation_xyz 
  'x, y, z' 
loop_ 
  _atom_site_fract_x
  _atom_site_fract_y
  _atom_site_fract_z
  _atom_site_type_symbol
  _atom_site_label
    0.369100     0.266000     0.635099 La La1
    0.630900     0.734000     0.364901 La La2
    0.130900     0.766000     0.896900 La La3
    0.869100     0.234000     0.103100 La La4
    0.138100     0.106700     0.244800 Rh Rh1
    0.861900     0.893300     0.755200 Rh Rh2
    0.361900     0.606700     0.968599 Rh Rh3
    0.638100     0.393300     0.031401 Rh Rh4
    0.250000     0.750000     0.500000 Rh Rh5
    0.750000     0.250000     0.500000 Rh Rh6
    0.250000     0.250000     0.000000 Si Si1
    0.750000     0.750000     0.000000 Si Si2
    0.525500     0.250000     0.275500 Si Si3
    0.974500     0.250000     0.724500 Si Si4
    0.474500     0.750000     0.724500 Si Si5
    0.025500     0.750000     0.275500 Si Si6
    0.106300     0.347800     0.454100 Si Si7
    0.893700     0.652200     0.545900 Si Si8
    0.393700     0.847800     0.241500 Si Si9
    0.606300     0.152200     0.758500 Si Si10
