# Generated by Catalysthub (Web: http://www.catalysthub.net/)
data_La12Ni4 
_symmetry_space_group_name_H-M          'P 1'
_cell_length_a      7.152388 
_cell_length_b     10.173006 
_cell_length_c      6.600789 
_cell_angle_alpha     90.000000 
_cell_angle_beta     90.000000 
_cell_angle_gamma     90.000000 
loop_ 
  _space_group_symop_operation_xyz 
  'x, y, z' 
loop_ 
  _atom_site_fract_x
  _atom_site_fract_y
  _atom_site_fract_z
  _atom_site_type_symbol
  _atom_site_label
    0.465424     0.750000     0.147519 La La1
    0.172373     0.067378     0.171601 La La2
    0.172373     0.432622     0.171601 La La3
    0.672373     0.067378     0.328399 La La4
    0.672373     0.432622     0.328399 La La5
    0.965424     0.750000     0.352481 La La6
    0.034576     0.250000     0.647520 La La7
    0.327626     0.567378     0.671602 La La8
    0.327626     0.932622     0.671602 La La9
    0.827627     0.567378     0.828398 La La10
    0.827627     0.932622     0.828398 La La11
    0.534577     0.250000     0.852481 La La12
    0.882110     0.250000     0.072531 Ni Ni1
    0.382109     0.250000     0.427470 Ni Ni2
    0.617890     0.750000     0.572530 Ni Ni3
    0.117891     0.750000     0.927469 Ni Ni4
