# Generated by Catalysthub (Web: http://www.catalysthub.net/)
data_La12Ru4 
_symmetry_space_group_name_H-M          'P 1'
_cell_length_a      7.465000 
_cell_length_b     10.016000 
_cell_length_c      6.570000 
_cell_angle_alpha     90.000000 
_cell_angle_beta     90.000000 
_cell_angle_gamma     90.000000 
loop_ 
  _space_group_symop_operation_xyz 
  'x, y, z' 
loop_ 
  _atom_site_fract_x
  _atom_site_fract_y
  _atom_site_fract_z
  _atom_site_type_symbol
  _atom_site_label
    0.672000     0.065000     0.332000 La La1
    0.172000     0.435000     0.168000 La La2
    0.328000     0.565000     0.668000 La La3
    0.828000     0.935000     0.832000 La La4
    0.328000     0.935000     0.668000 La La5
    0.828000     0.565000     0.832000 La La6
    0.672000     0.435000     0.332000 La La7
    0.172000     0.065000     0.168000 La La8
    0.547000     0.250000     0.852000 La La9
    0.047000     0.250000     0.648000 La La10
    0.453000     0.750000     0.148000 La La11
    0.953000     0.750000     0.352000 La La12
    0.870000     0.250000     0.033000 Ru Ru1
    0.370000     0.250000     0.467000 Ru Ru2
    0.130000     0.750000     0.967000 Ru Ru3
    0.630000     0.750000     0.533000 Ru Ru4
