# Generated by Catalysthub (Web: http://www.catalysthub.net/)
data_La6S8 
_symmetry_space_group_name_H-M          'P 1'
_cell_length_a      7.551742 
_cell_length_b      7.551742 
_cell_length_c      7.551742 
_cell_angle_alpha    109.471221 
_cell_angle_beta    109.471221 
_cell_angle_gamma    109.471221 
loop_ 
  _space_group_symop_operation_xyz 
  'x, y, z' 
loop_ 
  _atom_site_fract_x
  _atom_site_fract_y
  _atom_site_fract_z
  _atom_site_type_symbol
  _atom_site_label
    0.250000     0.625000     0.375000 La La1
    0.750000     0.875000     0.125000 La La2
    0.375000     0.250000     0.625000 La La3
    0.625000     0.375000     0.250000 La La4
    0.125000     0.750000     0.875000 La La5
    0.875000     0.125000     0.750000 La La6
    0.149161     0.149170     0.149170 S S1
    0.500000     0.999991     0.350830 S S2
    0.350839     0.500009     0.000009 S S3
    0.000000     0.350830     0.499991 S S4
    0.649170     0.649161     0.649170 S S5
    0.499991     0.000000     0.850830 S S6
    0.000009     0.850839     0.500009 S S7
    0.850830     0.500000     0.999991 S S8
