# Generated by Catalysthub (Web: http://www.catalysthub.net/)
data_La6Se8 
_symmetry_space_group_name_H-M          'P 1'
_cell_length_a      7.841860 
_cell_length_b      7.841860 
_cell_length_c      7.841860 
_cell_angle_alpha    109.471221 
_cell_angle_beta    109.471221 
_cell_angle_gamma    109.471221 
loop_ 
  _space_group_symop_operation_xyz 
  'x, y, z' 
loop_ 
  _atom_site_fract_x
  _atom_site_fract_y
  _atom_site_fract_z
  _atom_site_type_symbol
  _atom_site_label
    0.250000     0.624999     0.374999 La La1
    0.750000     0.874999     0.124999 La La2
    0.374999     0.250000     0.624999 La La3
    0.624999     0.374999     0.250000 La La4
    0.124999     0.750000     0.874999 La La5
    0.874999     0.124999     0.750000 La La6
    0.149999     0.149999     0.149999 Se Se1
    0.500000     0.000000     0.350001 Se Se2
    0.350001     0.500000     0.000000 Se Se3
    0.000000     0.350001     0.500000 Se Se4
    0.649999     0.649999     0.649999 Se Se5
    0.500000     0.000000     0.850001 Se Se6
    0.000000     0.850001     0.500000 Se Se7
    0.850001     0.500000     0.000000 Se Se8
