# Generated by Catalysthub (Web: http://www.catalysthub.net/)
data_As2Fe2Sr 
_symmetry_space_group_name_H-M          'P 1'
_cell_length_a      3.957114 
_cell_length_b      3.957114 
_cell_length_c      6.456480 
_cell_angle_alpha    107.845131 
_cell_angle_beta    107.845131 
_cell_angle_gamma     90.000000 
loop_ 
  _space_group_symop_operation_xyz 
  'x, y, z' 
loop_ 
  _atom_site_fract_x
  _atom_site_fract_y
  _atom_site_fract_z
  _atom_site_type_symbol
  _atom_site_label
    0.647074     0.647074     0.294147 As As1
    0.352927     0.352927     0.705854 As As2
    0.750001     0.250000     0.500000 Fe Fe1
    0.250000     0.750001     0.500000 Fe Fe2
    0.000000     0.000000     0.000000 Sr Sr1
