# Generated by Catalysthub (Web: http://www.catalysthub.net/)
data_La6Te8 
_symmetry_space_group_name_H-M          'P 1'
_cell_length_a      8.378802 
_cell_length_b      8.378802 
_cell_length_c      8.378802 
_cell_angle_alpha    109.471221 
_cell_angle_beta    109.471221 
_cell_angle_gamma    109.471221 
loop_ 
  _space_group_symop_operation_xyz 
  'x, y, z' 
loop_ 
  _atom_site_fract_x
  _atom_site_fract_y
  _atom_site_fract_z
  _atom_site_type_symbol
  _atom_site_label
    0.875001     0.750000     0.125000 La La1
    0.125000     0.375000     0.250000 La La2
    0.625000     0.250000     0.375000 La La3
    0.749999     0.875000     0.625000 La La4
    0.374999     0.124999     0.749999 La La5
    0.250000     0.625000     0.875000 La La6
    0.152248     0.000000     0.000000 Te Te1
    0.652248     0.000000     0.000000 Te Te2
    0.500000     0.500000     0.152248 Te Te3
    0.347752     0.847751     0.347752 Te Te4
    0.000000     0.652248     0.500000 Te Te5
    0.000000     0.152248     0.500000 Te Te6
    0.500000     0.500000     0.652248 Te Te7
    0.847752     0.347752     0.847752 Te Te8
