# Generated by Catalysthub (Web: http://www.catalysthub.net/)
data_Li2Ti4O8 
_symmetry_space_group_name_H-M          'P 1'
_cell_length_a      5.933333 
_cell_length_b      5.933333 
_cell_length_c      5.933333 
_cell_angle_alpha    120.000000 
_cell_angle_beta     90.000000 
_cell_angle_gamma    120.000000 
loop_ 
  _space_group_symop_operation_xyz 
  'x, y, z' 
loop_ 
  _atom_site_fract_x
  _atom_site_fract_y
  _atom_site_fract_z
  _atom_site_type_symbol
  _atom_site_label
    0.750000     0.500000     0.250000 Li Li1
    0.000000     0.000000     0.000000 Li Li2
    0.375000     0.750000     0.125000 Ti Ti1
    0.375000     0.250000     0.625000 Ti Ti2
    0.875000     0.250000     0.625000 Ti Ti3
    0.375000     0.750000     0.625000 Ti Ti4
    0.140000     0.280000     0.420000 O O1
    0.140000     0.720000     0.860000 O O2
    0.580000     0.720000     0.860000 O O3
    0.140000     0.280000     0.860000 O O4
    0.610000     0.220000     0.830000 O O5
    0.610000     0.780000     0.390000 O O6
    0.170000     0.780000     0.390000 O O7
    0.610000     0.220000     0.390000 O O8
