# Generated by Catalysthub (Web: http://www.catalysthub.net/)
data_Lu4Os8 
_symmetry_space_group_name_H-M          'P 1'
_cell_length_a      5.123571 
_cell_length_b      5.123578 
_cell_length_c      8.428317 
_cell_angle_alpha     89.999984 
_cell_angle_beta     90.000091 
_cell_angle_gamma    120.001298 
loop_ 
  _space_group_symop_operation_xyz 
  'x, y, z' 
loop_ 
  _atom_site_fract_x
  _atom_site_fract_y
  _atom_site_fract_z
  _atom_site_type_symbol
  _atom_site_label
    0.333332     0.666669     0.435003 Lu Lu1
    0.666636     0.333332     0.935022 Lu Lu2
    0.666667     0.333331     0.564980 Lu Lu3
    0.333318     0.666669     0.064995 Lu Lu4
    0.344419     0.172198     0.250003 Os Os1
    0.172186     0.344427     0.750001 Os Os2
    0.827802     0.655581     0.249999 Os Os3
    0.000001     0.000000     0.500004 Os Os4
   -0.000021    -0.000000    -0.000004 Os Os5
    0.655571     0.827805     0.749998 Os Os6
    0.172233     0.827751     0.750000 Os Os7
    0.827757     0.172240     0.249999 Os Os8
