# Generated by Catalysthub (Web: http://www.catalysthub.net/)
data_Mn2U12 
_symmetry_space_group_name_H-M          'P 1'
_cell_length_a      5.270479 
_cell_length_b      7.634748 
_cell_length_c      7.634748 
_cell_angle_alpha     96.842364 
_cell_angle_beta     69.808198 
_cell_angle_gamma    110.191802 
loop_ 
  _space_group_symop_operation_xyz 
  'x, y, z' 
loop_ 
  _atom_site_fract_x
  _atom_site_fract_y
  _atom_site_fract_z
  _atom_site_type_symbol
  _atom_site_label
    0.250000     0.000000     0.000000 Mn Mn1
    0.750000     0.000000     0.000000 Mn Mn2
    0.098588     0.316632     0.119456 U U1
    0.281956     0.683368     0.119456 U U2
    0.593524     0.500000     0.312953 U U3
    0.401412     0.119456     0.316632 U U4
    0.781956     0.880544     0.316632 U U5
    0.906477     0.312953     0.500000 U U6
    0.093524     0.687047     0.500000 U U7
    0.598588     0.880544     0.683368 U U8
    0.218044     0.119456     0.683368 U U9
    0.406477     0.500000     0.687047 U U10
    0.901412     0.683368     0.880544 U U11
    0.718044     0.316632     0.880544 U U12
