# Generated by Catalysthub (Web: http://www.catalysthub.net/)
data_Mo3Ni3P3 
_symmetry_space_group_name_H-M          'P 1'
_cell_length_a      5.861000 
_cell_length_b      5.861000 
_cell_length_c      3.704000 
_cell_angle_alpha     90.000000 
_cell_angle_beta     90.000000 
_cell_angle_gamma    119.999999 
loop_ 
  _space_group_symop_operation_xyz 
  'x, y, z' 
loop_ 
  _atom_site_fract_x
  _atom_site_fract_y
  _atom_site_fract_z
  _atom_site_type_symbol
  _atom_site_label
    0.586470     0.000000     0.500000 Mo Mo1
    0.000000     0.586470     0.500000 Mo Mo2
    0.413531     0.413531     0.500000 Mo Mo3
    0.250340     0.000000     0.000000 Ni Ni1
    0.000000     0.250340     0.000000 Ni Ni2
    0.749661     0.749661     0.000000 Ni Ni3
    0.000000     0.000000     0.500000 P P1
    0.333301     0.666700     0.000000 P P2
    0.666601     0.333301     0.000000 P P3
