# Generated by Catalysthub (Web: http://www.catalysthub.net/)
data_Mo4P4Ru4 
_symmetry_space_group_name_H-M          'P 1'
_cell_length_a      6.035030 
_cell_length_b      3.853110 
_cell_length_c      6.943550 
_cell_angle_alpha     90.000000 
_cell_angle_beta     90.000000 
_cell_angle_gamma     90.000000 
loop_ 
  _space_group_symop_operation_xyz 
  'x, y, z' 
loop_ 
  _atom_site_fract_x
  _atom_site_fract_y
  _atom_site_fract_z
  _atom_site_type_symbol
  _atom_site_label
    0.026200     0.250001     0.829499 Mo Mo1
    0.473800     0.749999     0.329500 Mo Mo2
    0.526200     0.250001     0.670500 Mo Mo3
    0.973800     0.749999     0.170501 Mo Mo4
    0.756700     0.250001     0.382300 P P1
    0.743300     0.749999     0.882299 P P2
    0.256700     0.250001     0.117701 P P3
    0.243300     0.749999     0.617700 P P4
    0.141800     0.250001     0.432501 Ru Ru1
    0.358200     0.749999     0.932500 Ru Ru2
    0.641800     0.250001     0.067500 Ru Ru3
    0.858200     0.749999     0.567499 Ru Ru4
