# Generated by Catalysthub (Web: http://www.catalysthub.net/)
data_Mo4Zr2 
_symmetry_space_group_name_H-M          'P 1'
_cell_length_a      5.384462 
_cell_length_b      5.384462 
_cell_length_c      5.384462 
_cell_angle_alpha    120.000000 
_cell_angle_beta     90.000000 
_cell_angle_gamma    120.000000 
loop_ 
  _space_group_symop_operation_xyz 
  'x, y, z' 
loop_ 
  _atom_site_fract_x
  _atom_site_fract_y
  _atom_site_fract_z
  _atom_site_type_symbol
  _atom_site_label
    0.375000     0.749999     0.124999 Mo Mo1
    0.375000     0.250001     0.625000 Mo Mo2
    0.875001     0.250001     0.625000 Mo Mo3
    0.375000     0.749999     0.625000 Mo Mo4
    0.000000     0.000000     0.000000 Zr Zr1
    0.749998     0.499999     0.249999 Zr Zr2
