# Generated by Catalysthub (Web: http://www.catalysthub.net/)
data_Mo12P4 
_symmetry_space_group_name_H-M          'P 1'
_cell_length_a      7.333908 
_cell_length_b      7.333908 
_cell_length_c      7.333908 
_cell_angle_alpha     96.217260 
_cell_angle_beta     96.217260 
_cell_angle_gamma    141.573156 
loop_ 
  _space_group_symop_operation_xyz 
  'x, y, z' 
loop_ 
  _atom_site_fract_x
  _atom_site_fract_y
  _atom_site_fract_z
  _atom_site_type_symbol
  _atom_site_label
    0.000000     0.355000     0.355000 Mo Mo1
    0.000000     0.645000     0.645000 Mo Mo2
    0.355000     0.000000     0.355000 Mo Mo3
    0.645000     0.000000     0.645000 Mo Mo4
    0.467499     0.467499     0.403000 Mo Mo5
    0.064500     0.064500     0.597000 Mo Mo6
    0.532501     0.935500     0.000000 Mo Mo7
    0.935500     0.532501     0.000000 Mo Mo8
    0.859100     0.859100     0.185199 Mo Mo9
    0.673901     0.673901     0.814801 Mo Mo10
    0.140900     0.326099     0.000000 Mo Mo11
    0.326099     0.140900     0.000000 Mo Mo12
    0.500000     0.791100     0.291100 P P1
    0.500000     0.208900     0.708900 P P2
    0.791100     0.500000     0.291100 P P3
    0.208900     0.500000     0.708900 P P4
