# Generated by Catalysthub (Web: http://www.catalysthub.net/)
data_As2Ni2O6Sc2Sr4 
_symmetry_space_group_name_H-M          'P 1'
_cell_length_a      4.100800 
_cell_length_b      4.100800 
_cell_length_c     15.463600 
_cell_angle_alpha     90.000000 
_cell_angle_beta     90.000000 
_cell_angle_gamma     90.000000 
loop_ 
  _space_group_symop_operation_xyz 
  'x, y, z' 
loop_ 
  _atom_site_fract_x
  _atom_site_fract_y
  _atom_site_fract_z
  _atom_site_type_symbol
  _atom_site_label
    0.250000     0.250000     0.077000 As As1
    0.750000     0.750000     0.923000 As As2
    0.250000     0.750000     0.000000 Ni Ni1
    0.750000     0.250000     0.000000 Ni Ni2
    0.250000     0.250000     0.432400 O O1
    0.750000     0.750000     0.567600 O O2
    0.750000     0.250000     0.282400 O O3
    0.250000     0.750000     0.717600 O O4
    0.750000     0.250000     0.717600 O O5
    0.250000     0.750000     0.282400 O O6
    0.250000     0.250000     0.303900 Sc Sc1
    0.750000     0.750000     0.696100 Sc Sc2
    0.750000     0.750000     0.412000 Sr Sr1
    0.250000     0.250000     0.588000 Sr Sr2
    0.750000     0.750000     0.181100 Sr Sr3
    0.250000     0.250000     0.818900 Sr Sr4
