# Generated by Catalysthub (Web: http://www.catalysthub.net/)
data_Mo6Sb14 
_symmetry_space_group_name_H-M          'P 1'
_cell_length_a      8.286824 
_cell_length_b      8.286824 
_cell_length_c      8.286824 
_cell_angle_alpha    109.471221 
_cell_angle_beta    109.471221 
_cell_angle_gamma    109.471221 
loop_ 
  _space_group_symop_operation_xyz 
  'x, y, z' 
loop_ 
  _atom_site_fract_x
  _atom_site_fract_y
  _atom_site_fract_z
  _atom_site_type_symbol
  _atom_site_label
    0.000000     0.338000     0.338000 Mo Mo1
    0.000000     0.662000     0.662000 Mo Mo2
    0.338000     0.000000     0.338000 Mo Mo3
    0.338000     0.338000     0.000000 Mo Mo4
    0.662000     0.000000     0.662000 Mo Mo5
    0.662000     0.662000     0.000000 Mo Mo6
    0.325999     0.325999     0.325999 Sb Sb1
    0.000000     0.000000     0.674001 Sb Sb2
    0.674001     0.000000     0.000000 Sb Sb3
    0.000000     0.674001     0.000000 Sb Sb4
    0.674001     0.674001     0.674001 Sb Sb5
    0.000000     0.000000     0.325999 Sb Sb6
    0.000000     0.325999     0.000000 Sb Sb7
    0.325999     0.000000     0.000000 Sb Sb8
    0.500000     0.750000     0.250000 Sb Sb9
    0.500000     0.250000     0.750000 Sb Sb10
    0.250000     0.500000     0.750000 Sb Sb11
    0.750000     0.250000     0.500000 Sb Sb12
    0.750000     0.500000     0.250000 Sb Sb13
    0.250000     0.750000     0.500000 Sb Sb14
