# Generated by Catalysthub (Web: http://www.catalysthub.net/)
data_Bi2Ni2 
_symmetry_space_group_name_H-M          'P 1'
_cell_length_a      3.899898 
_cell_length_b      3.900065 
_cell_length_c      6.140622 
_cell_angle_alpha     90.000000 
_cell_angle_beta     90.000000 
_cell_angle_gamma    119.998583 
loop_ 
  _space_group_symop_operation_xyz 
  'x, y, z' 
loop_ 
  _atom_site_fract_x
  _atom_site_fract_y
  _atom_site_fract_z
  _atom_site_type_symbol
  _atom_site_label
    0.000000     0.000000     0.000000 Bi Bi1
    0.000000     0.000000     0.500000 Bi Bi2
    0.333309     0.666618     0.250001 Ni Ni1
    0.666692     0.333384     0.750001 Ni Ni2
