# Generated by Catalysthub (Web: http://www.catalysthub.net/)
data_Mo6Se8 
_symmetry_space_group_name_H-M          'P 1'
_cell_length_a      6.658000 
_cell_length_b      6.658000 
_cell_length_c      6.658000 
_cell_angle_alpha     91.579994 
_cell_angle_beta     91.579994 
_cell_angle_gamma     91.580003 
loop_ 
  _space_group_symop_operation_xyz 
  'x, y, z' 
loop_ 
  _atom_site_fract_x
  _atom_site_fract_y
  _atom_site_fract_z
  _atom_site_type_symbol
  _atom_site_label
    0.223039     0.412980     0.546080 Mo Mo1
    0.546080     0.223040     0.412979 Mo Mo2
    0.412980     0.546079     0.223040 Mo Mo3
    0.776960     0.587019     0.453919 Mo Mo4
    0.453919     0.776959     0.587020 Mo Mo5
    0.587019     0.453920     0.776959 Mo Mo6
    0.213730     0.213730     0.213730 Se Se1
    0.786270     0.786270     0.786270 Se Se2
    0.379170     0.127411     0.744701 Se Se3
    0.744700     0.379170     0.127411 Se Se4
    0.127410     0.744700     0.379171 Se Se5
    0.620830     0.872589     0.255300 Se Se6
    0.255300     0.620830     0.872589 Se Se7
    0.872590     0.255300     0.620829 Se Se8
