# Generated by Catalysthub (Web: http://www.catalysthub.net/)
data_Mo6Te6Tl2 
_symmetry_space_group_name_H-M          'P 1'
_cell_length_a      9.428000 
_cell_length_b      9.428000 
_cell_length_c      4.583000 
_cell_angle_alpha     90.000000 
_cell_angle_beta     90.000000 
_cell_angle_gamma    119.999999 
loop_ 
  _space_group_symop_operation_xyz 
  'x, y, z' 
loop_ 
  _atom_site_fract_x
  _atom_site_fract_y
  _atom_site_fract_z
  _atom_site_type_symbol
  _atom_site_label
    0.176000     0.137999     0.250000 Mo Mo1
    0.823999     0.862000     0.750000 Mo Mo2
    0.862000     0.038001     0.250000 Mo Mo3
    0.962000     0.824000     0.250000 Mo Mo4
    0.038000     0.176000     0.750000 Mo Mo5
    0.138000     0.962000     0.750000 Mo Mo6
    0.068000     0.369000     0.250000 Te Te1
    0.932000     0.630999     0.750000 Te Te2
    0.631000     0.699000     0.250000 Te Te3
    0.301000     0.932001     0.250000 Te Te4
    0.699000     0.068000     0.750000 Te Te5
    0.369000     0.301000     0.750000 Te Te6
    0.666700     0.333300     0.250000 Tl Tl1
    0.333300     0.666700     0.750000 Tl Tl2
