# Generated by Catalysthub (Web: http://www.catalysthub.net/)
data_Mo6NdS8 
_symmetry_space_group_name_H-M          'P 1'
_cell_length_a      6.487993 
_cell_length_b      6.487993 
_cell_length_c      6.487992 
_cell_angle_alpha     89.062071 
_cell_angle_beta     89.062071 
_cell_angle_gamma     89.062069 
loop_ 
  _space_group_symop_operation_xyz 
  'x, y, z' 
loop_ 
  _atom_site_fract_x
  _atom_site_fract_y
  _atom_site_fract_z
  _atom_site_type_symbol
  _atom_site_label
    0.560000     0.422000     0.233000 Mo Mo1
    0.233000     0.560000     0.421999 Mo Mo2
    0.422000     0.233000     0.560000 Mo Mo3
    0.440000     0.578000     0.767000 Mo Mo4
    0.767000     0.440000     0.578001 Mo Mo5
    0.578000     0.767000     0.440000 Mo Mo6
    0.000000     0.000000     0.000000 Nd Nd1
    0.121000     0.375000     0.753000 S S1
    0.753000     0.121000     0.375000 S S2
    0.375000     0.753000     0.121001 S S3
    0.878999     0.624999     0.247000 S S4
    0.247000     0.879000     0.625000 S S5
    0.625000     0.247000     0.878999 S S6
    0.239000     0.239000     0.239000 S S7
    0.761000     0.761000     0.761000 S S8
