# Generated by Catalysthub (Web: http://www.catalysthub.net/)
data_Mo6PbS8 
_symmetry_space_group_name_H-M          'P 1'
_cell_length_a      6.582294 
_cell_length_b      6.582294 
_cell_length_c      6.582294 
_cell_angle_alpha     90.900895 
_cell_angle_beta     89.099105 
_cell_angle_gamma     90.900897 
loop_ 
  _space_group_symop_operation_xyz 
  'x, y, z' 
loop_ 
  _atom_site_fract_x
  _atom_site_fract_y
  _atom_site_fract_z
  _atom_site_type_symbol
  _atom_site_label
    0.562742     0.583872     0.226588 Mo Mo1
    0.226588     0.437258     0.416128 Mo Mo2
    0.583871     0.226589     0.437257 Mo Mo3
    0.416128     0.773412     0.562742 Mo Mo4
    0.773411     0.562743     0.583871 Mo Mo5
    0.437257     0.416129     0.773412 Mo Mo6
    0.000000     0.000000     0.000000 Pb Pb1
    0.384070     0.258417     0.125612 S S1
    0.244484     0.755517     0.244483 S S2
    0.874386     0.384070     0.258416 S S3
    0.741584     0.874388     0.384070 S S4
    0.258415     0.125613     0.615930 S S5
    0.125612     0.615930     0.741583 S S6
    0.755517     0.244483     0.755517 S S7
    0.615929     0.741584     0.874387 S S8
