# Generated by Catalysthub (Web: http://www.catalysthub.net/)
data_Mo6PbSe8 
_symmetry_space_group_name_H-M          'P 1'
_cell_length_a      6.873794 
_cell_length_b      6.873794 
_cell_length_c      6.873795 
_cell_angle_alpha     90.967416 
_cell_angle_beta     89.032584 
_cell_angle_gamma     90.967413 
loop_ 
  _space_group_symop_operation_xyz 
  'x, y, z' 
loop_ 
  _atom_site_fract_x
  _atom_site_fract_y
  _atom_site_fract_z
  _atom_site_type_symbol
  _atom_site_label
    0.560866     0.577953     0.238981 Mo Mo1
    0.238982     0.439135     0.422047 Mo Mo2
    0.577953     0.238981     0.439133 Mo Mo3
    0.422047     0.761018     0.560865 Mo Mo4
    0.761017     0.560865     0.577952 Mo Mo5
    0.439134     0.422047     0.761018 Mo Mo6
    0.000000     0.000000     0.000000 Pb Pb1
    0.381775     0.252489     0.121170 Se Se1
    0.243270     0.756730     0.243269 Se Se2
    0.878830     0.381776     0.252488 Se Se3
    0.747511     0.878831     0.381776 Se Se4
    0.252488     0.121170     0.618224 Se Se5
    0.121169     0.618225     0.747512 Se Se6
    0.756731     0.243269     0.756730 Se Se7
    0.618224     0.747512     0.878830 Se Se8
