# Generated by Catalysthub (Web: http://www.catalysthub.net/)
data_Mo6S8Sn 
_symmetry_space_group_name_H-M          'P 1'
_cell_length_a      6.496604 
_cell_length_b      6.496604 
_cell_length_c      6.496604 
_cell_angle_alpha     89.259217 
_cell_angle_beta     89.259217 
_cell_angle_gamma     89.259212 
loop_ 
  _space_group_symop_operation_xyz 
  'x, y, z' 
loop_ 
  _atom_site_fract_x
  _atom_site_fract_y
  _atom_site_fract_z
  _atom_site_type_symbol
  _atom_site_label
    0.561000     0.417000     0.225001 Mo Mo1
    0.225001     0.561000     0.417000 Mo Mo2
    0.417001     0.225000     0.561000 Mo Mo3
    0.439000     0.583000     0.774999 Mo Mo4
    0.774999     0.439000     0.583000 Mo Mo5
    0.582999     0.775000     0.439000 Mo Mo6
    0.126000     0.379000     0.744000 S S1
    0.743999     0.126000     0.379000 S S2
    0.379000     0.744000     0.126000 S S3
    0.874000     0.621000     0.256000 S S4
    0.256000     0.874000     0.621000 S S5
    0.621000     0.256000     0.874000 S S6
    0.241000     0.241000     0.241000 S S7
    0.759000     0.759000     0.759000 S S8
    0.000000     0.000000     0.000000 Sn Sn1
