# Generated by Catalysthub (Web: http://www.catalysthub.net/)
data_Mo6Se6Tl2 
_symmetry_space_group_name_H-M          'P 1'
_cell_length_a      9.073355 
_cell_length_b      9.073272 
_cell_length_c      4.521547 
_cell_angle_alpha     90.000000 
_cell_angle_beta     90.000000 
_cell_angle_gamma    119.998014 
loop_ 
  _space_group_symop_operation_xyz 
  'x, y, z' 
loop_ 
  _atom_site_fract_x
  _atom_site_fract_y
  _atom_site_fract_z
  _atom_site_type_symbol
  _atom_site_label
    0.848891     0.032446     0.250001 Mo Mo1
    0.183553     0.151112     0.250001 Mo Mo2
    0.967556     0.816449     0.250001 Mo Mo3
    0.032443     0.183551     0.750000 Mo Mo4
    0.816448     0.848888     0.750000 Mo Mo5
    0.151108     0.967553     0.750000 Mo Mo6
    0.065909     0.363441     0.250001 Se Se1
    0.636571     0.702475     0.250001 Se Se2
    0.297528     0.934077     0.250001 Se Se3
    0.702472     0.065923     0.750000 Se Se4
    0.363430     0.297525     0.750000 Se Se5
    0.934090     0.636559     0.750000 Se Se6
    0.666632     0.333315     0.250001 Tl Tl1
    0.333367     0.666684     0.750000 Tl Tl2
