# Generated by Catalysthub (Web: http://www.catalysthub.net/)
data_As8Pt8Sr4 
_symmetry_space_group_name_H-M          'P 1'
_cell_length_a      9.752000 
_cell_length_b      4.398000 
_cell_length_c      8.727000 
_cell_angle_alpha     90.000000 
_cell_angle_beta     90.340002 
_cell_angle_gamma     90.000000 
loop_ 
  _space_group_symop_operation_xyz 
  'x, y, z' 
loop_ 
  _atom_site_fract_x
  _atom_site_fract_y
  _atom_site_fract_z
  _atom_site_type_symbol
  _atom_site_label
    0.376000     0.212001     0.378000 As As1
    0.624000     0.712001     0.122001 As As2
    0.624000     0.787999     0.622000 As As3
    0.376000     0.287999     0.878000 As As4
    0.997000     0.244000     0.127000 As As5
    0.003000     0.744000     0.373000 As As6
    0.003000     0.756000     0.873000 As As7
    0.997000     0.256000     0.627000 As As8
    0.498500     0.181801     0.135500 Pt Pt1
    0.501500     0.681801     0.364501 Pt Pt2
    0.501500     0.818199     0.864500 Pt Pt3
    0.498500     0.318199     0.635500 Pt Pt4
    0.122000     0.247799     0.375800 Pt Pt5
    0.878000     0.747799     0.124200 Pt Pt6
    0.878000     0.752201     0.624200 Pt Pt7
    0.122000     0.252201     0.875800 Pt Pt8
    0.248000     0.737001     0.126000 Sr Sr1
    0.752000     0.237001     0.374000 Sr Sr2
    0.752000     0.262999     0.874000 Sr Sr3
    0.248000     0.762999     0.626001 Sr Sr4
