# Generated by Catalysthub (Web: http://www.catalysthub.net/)
data_Mo6Se8Sn 
_symmetry_space_group_name_H-M          'P 1'
_cell_length_a      6.764513 
_cell_length_b      6.764513 
_cell_length_c      6.764513 
_cell_angle_alpha     89.135217 
_cell_angle_beta     89.135217 
_cell_angle_gamma     89.135215 
loop_ 
  _space_group_symop_operation_xyz 
  'x, y, z' 
loop_ 
  _atom_site_fract_x
  _atom_site_fract_y
  _atom_site_fract_z
  _atom_site_type_symbol
  _atom_site_label
    0.562000     0.417999     0.226000 Mo Mo1
    0.226000     0.562000     0.417999 Mo Mo2
    0.417999     0.226000     0.562000 Mo Mo3
    0.438000     0.582001     0.774000 Mo Mo4
    0.774000     0.438000     0.582001 Mo Mo5
    0.582001     0.774000     0.438000 Mo Mo6
    0.126000     0.379000     0.744000 Se Se1
    0.744001     0.126000     0.379000 Se Se2
    0.379000     0.744001     0.126001 Se Se3
    0.874000     0.621000     0.256000 Se Se4
    0.255999     0.874000     0.621000 Se Se5
    0.621000     0.255999     0.873999 Se Se6
    0.241000     0.241000     0.241000 Se Se7
    0.759000     0.759000     0.759000 Se Se8
    0.000000     0.000000     0.000000 Sn Sn1
