# Generated by Catalysthub (Web: http://www.catalysthub.net/)
data_Mo6Se8Yb 
_symmetry_space_group_name_H-M          'P 1'
_cell_length_a      6.759445 
_cell_length_b      6.759445 
_cell_length_c      6.759445 
_cell_angle_alpha     89.100882 
_cell_angle_beta     89.100882 
_cell_angle_gamma     89.100882 
loop_ 
  _space_group_symop_operation_xyz 
  'x, y, z' 
loop_ 
  _atom_site_fract_x
  _atom_site_fract_y
  _atom_site_fract_z
  _atom_site_type_symbol
  _atom_site_label
    0.560000     0.420000     0.232000 Mo Mo1
    0.232000     0.560001     0.420000 Mo Mo2
    0.420000     0.231999     0.560000 Mo Mo3
    0.440000     0.580000     0.768000 Mo Mo4
    0.768000     0.439999     0.580001 Mo Mo5
    0.580000     0.768001     0.440000 Mo Mo6
    0.124000     0.375999     0.752000 Se Se1
    0.752000     0.124000     0.375999 Se Se2
    0.376000     0.752000     0.124000 Se Se3
    0.876000     0.624001     0.248000 Se Se4
    0.248000     0.876001     0.624001 Se Se5
    0.624000     0.248001     0.876000 Se Se6
    0.241000     0.241000     0.241000 Se Se7
    0.759000     0.759000     0.759000 Se Se8
    0.000000     0.000000     0.000000 Yb Yb1
