# Generated by Catalysthub (Web: http://www.catalysthub.net/)
data_Bi4Sn4 
_symmetry_space_group_name_H-M          'P 1'
_cell_length_a      6.266228 
_cell_length_b      6.266228 
_cell_length_c      6.446306 
_cell_angle_alpha     90.000000 
_cell_angle_beta     90.000000 
_cell_angle_gamma    117.639350 
loop_ 
  _space_group_symop_operation_xyz 
  'x, y, z' 
loop_ 
  _atom_site_fract_x
  _atom_site_fract_y
  _atom_site_fract_z
  _atom_site_type_symbol
  _atom_site_label
    0.327681     0.327681     0.182239 Bi Bi1
    0.827681     0.827681     0.317762 Bi Bi2
    0.172320     0.172320     0.682239 Bi Bi3
    0.672319     0.672319     0.817761 Bi Bi4
    0.777079     0.222920     0.000000 Sn Sn1
    0.222920     0.777079     0.000000 Sn Sn2
    0.722920     0.277078     0.500000 Sn Sn3
    0.277078     0.722920     0.500000 Sn Sn4
