# Generated by Catalysthub (Web: http://www.catalysthub.net/)
data_Mo8P5 
_symmetry_space_group_name_H-M          'P 1'
_cell_length_a      9.399200 
_cell_length_b      3.208800 
_cell_length_c      6.536900 
_cell_angle_alpha     90.000000 
_cell_angle_beta    109.592005 
_cell_angle_gamma     90.000000 
loop_ 
  _space_group_symop_operation_xyz 
  'x, y, z' 
loop_ 
  _atom_site_fract_x
  _atom_site_fract_y
  _atom_site_fract_z
  _atom_site_type_symbol
  _atom_site_label
    0.497700     0.500000     0.123200 Mo Mo1
    0.246800     0.000000     0.793100 Mo Mo2
    0.780600     0.000000     0.239000 Mo Mo3
    0.000000     0.000000     0.000000 Mo Mo4
    0.780499     0.500000     0.611299 Mo Mo5
    0.052901     0.500000     0.393700 Mo Mo6
    0.570600     0.000000     0.793901 Mo Mo7
    0.306100     0.000000     0.356900 Mo Mo8
    0.985600     0.000000     0.623599 P P1
    0.209000     0.500000     0.065900 P P2
    0.371601     0.500000     0.655301 P P3
    0.785800     0.500000     0.981300 P P4
    0.583100     0.000000     0.430101 P P5
