# Generated by Catalysthub (Web: http://www.catalysthub.net/)
data_N3Nb6 
_symmetry_space_group_name_H-M          'P 1'
_cell_length_a      5.338200 
_cell_length_b      5.338129 
_cell_length_c      4.994079 
_cell_angle_alpha     90.001543 
_cell_angle_beta     89.999229 
_cell_angle_gamma    119.999556 
loop_ 
  _space_group_symop_operation_xyz 
  'x, y, z' 
loop_ 
  _atom_site_fract_x
  _atom_site_fract_y
  _atom_site_fract_z
  _atom_site_type_symbol
  _atom_site_label
    0.000000     0.000000     0.000000 N N1
    0.333339     0.666670     0.499999 N N2
    0.666662     0.333330     0.500000 N N3
    0.666348     0.666341     0.248473 Nb Nb1
    0.333651    -0.000006     0.248474 Nb Nb2
    0.000001     0.333653     0.248481 Nb Nb3
   -0.000000     0.666347     0.751518 Nb Nb4
    0.333652     0.333659     0.751526 Nb Nb5
    0.666349     0.000008     0.751527 Nb Nb6
