# Generated by Catalysthub (Web: http://www.catalysthub.net/)
data_As6La8 
_symmetry_space_group_name_H-M          'P 1'
_cell_length_a      7.973126 
_cell_length_b      7.973126 
_cell_length_c      7.973126 
_cell_angle_alpha    109.471221 
_cell_angle_beta    109.471221 
_cell_angle_gamma    109.471221 
loop_ 
  _space_group_symop_operation_xyz 
  'x, y, z' 
loop_ 
  _atom_site_fract_x
  _atom_site_fract_y
  _atom_site_fract_z
  _atom_site_type_symbol
  _atom_site_label
    0.875000     0.750000     0.125000 As As1
    0.125000     0.374999     0.250000 As As2
    0.625000     0.250000     0.375001 As As3
    0.750000     0.875001     0.625000 As As4
    0.375001     0.125000     0.750000 As As5
    0.250000     0.625000     0.875000 As As6
    0.136187     0.000000     0.000000 La La1
    0.636187     0.000000     0.000000 La La2
    0.500000     0.500000     0.136187 La La3
    0.363813     0.863813     0.363813 La La4
    0.000000     0.136187     0.499999 La La5
    0.000000     0.636188     0.500000 La La6
    0.499999     0.499999     0.636187 La La7
    0.863812     0.363812     0.863812 La La8
