# Generated by Catalysthub (Web: http://www.catalysthub.net/)
data_NbNi2Sn 
_symmetry_space_group_name_H-M          'P 1'
_cell_length_a      4.379076 
_cell_length_b      4.379076 
_cell_length_c      4.379076 
_cell_angle_alpha    120.000000 
_cell_angle_beta     90.000000 
_cell_angle_gamma    120.000000 
loop_ 
  _space_group_symop_operation_xyz 
  'x, y, z' 
loop_ 
  _atom_site_fract_x
  _atom_site_fract_y
  _atom_site_fract_z
  _atom_site_type_symbol
  _atom_site_label
    0.000000     0.000000     0.000000 Nb Nb1
    0.750001     0.500001     0.250000 Ni Ni1
    0.250000     0.500001     0.750001 Ni Ni2
    0.499999     0.000000     0.499999 Sn Sn1
