# Generated by Catalysthub (Web: http://www.catalysthub.net/)
data_Nb2P2S2 
_symmetry_space_group_name_H-M          'P 1'
_cell_length_a      3.455140 
_cell_length_b      4.724612 
_cell_length_c      6.686761 
_cell_angle_alpha    110.688130 
_cell_angle_beta    104.972582 
_cell_angle_gamma     90.000000 
loop_ 
  _space_group_symop_operation_xyz 
  'x, y, z' 
loop_ 
  _atom_site_fract_x
  _atom_site_fract_y
  _atom_site_fract_z
  _atom_site_type_symbol
  _atom_site_label
    0.123993     0.623994     0.247987 Nb Nb1
    0.876007     0.376007     0.752015 Nb Nb2
    0.500000     0.236502     0.000000 P P1
    0.500000     0.763498     0.000000 P P2
    0.212319     0.212319     0.424638 S S1
    0.787681     0.787682     0.575362 S S2
