# Generated by Catalysthub (Web: http://www.catalysthub.net/)
data_Nb2S4 
_symmetry_space_group_name_H-M          'P 1'
_cell_length_a      3.342922 
_cell_length_b      3.342965 
_cell_length_c     12.265354 
_cell_angle_alpha     90.000000 
_cell_angle_beta     90.000000 
_cell_angle_gamma    119.999568 
loop_ 
  _space_group_symop_operation_xyz 
  'x, y, z' 
loop_ 
  _atom_site_fract_x
  _atom_site_fract_y
  _atom_site_fract_z
  _atom_site_type_symbol
  _atom_site_label
   -0.000019    -0.000038     0.250000 Nb Nb1
    0.000019     0.000038     0.750000 Nb Nb2
    0.333309     0.666618     0.122081 S S1
    0.333309     0.666618     0.377918 S S2
    0.666690     0.333380     0.622082 S S3
    0.666690     0.333380     0.877918 S S4
