# Generated by Catalysthub (Web: http://www.catalysthub.net/)
data_Nb2Se4 
_symmetry_space_group_name_H-M          'P 1'
_cell_length_a      3.468383 
_cell_length_b      3.468418 
_cell_length_c     12.657849 
_cell_angle_alpha     90.000000 
_cell_angle_beta     90.000000 
_cell_angle_gamma    119.999663 
loop_ 
  _space_group_symop_operation_xyz 
  'x, y, z' 
loop_ 
  _atom_site_fract_x
  _atom_site_fract_y
  _atom_site_fract_z
  _atom_site_type_symbol
  _atom_site_label
   -0.000008    -0.000017     0.250000 Nb Nb1
    0.000008     0.000017     0.750000 Nb Nb2
    0.333304     0.666607     0.116702 Se Se1
    0.333304     0.666607     0.383299 Se Se2
    0.666696     0.333393     0.616701 Se Se3
    0.666696     0.333393     0.883299 Se Se4
