# Generated by Catalysthub (Web: http://www.catalysthub.net/)
data_Nb4Sn8 
_symmetry_space_group_name_H-M          'P 1'
_cell_length_a      5.689798 
_cell_length_b      5.719579 
_cell_length_c     10.038616 
_cell_angle_alpha     98.103401 
_cell_angle_beta    106.462968 
_cell_angle_gamma     60.172091 
loop_ 
  _space_group_symop_operation_xyz 
  'x, y, z' 
loop_ 
  _atom_site_fract_x
  _atom_site_fract_y
  _atom_site_fract_z
  _atom_site_type_symbol
  _atom_site_label
    0.623196     0.499999     0.246391 Nb Nb1
    0.126805     0.000000     0.253609 Nb Nb2
    0.873195     0.000000     0.746391 Nb Nb3
    0.876805     0.499999     0.753609 Nb Nb4
    0.831228     0.337544     0.000000 Sn Sn1
    0.168772     0.662456     0.000000 Sn Sn2
    0.582535     0.000000     0.165069 Sn Sn3
    0.167466     0.499999     0.334931 Sn Sn4
    0.918772     0.162457     0.500000 Sn Sn5
    0.581228     0.837543     0.500000 Sn Sn6
    0.332535     0.499999     0.665069 Sn Sn7
    0.417465     0.000000     0.834931 Sn Sn8
