# Generated by Catalysthub (Web: http://www.catalysthub.net/)
data_Nb4Se6 
_symmetry_space_group_name_H-M          'P 1'
_cell_length_a      6.505000 
_cell_length_b      3.434000 
_cell_length_c      9.215000 
_cell_angle_alpha     90.000000 
_cell_angle_beta    103.389998 
_cell_angle_gamma     90.000000 
loop_ 
  _space_group_symop_operation_xyz 
  'x, y, z' 
loop_ 
  _atom_site_fract_x
  _atom_site_fract_y
  _atom_site_fract_z
  _atom_site_type_symbol
  _atom_site_label
    0.113800     0.250000     0.636900 Nb Nb1
    0.886200     0.750000     0.363100 Nb Nb2
    0.314700     0.250000     0.003600 Nb Nb3
    0.685300     0.750000     0.996400 Nb Nb4
    0.727899     0.250000     0.514400 Se Se1
    0.272099     0.750000     0.485600 Se Se2
    0.973300     0.250000     0.156400 Se Se3
    0.026700     0.750000     0.843600 Se Se4
    0.521099     0.250000     0.796700 Se Se5
    0.478899     0.750000     0.203300 Se Se6
