# Generated by Catalysthub (Web: http://www.catalysthub.net/)
data_Nb6S8 
_symmetry_space_group_name_H-M          'P 1'
_cell_length_a      9.580600 
_cell_length_b      9.580600 
_cell_length_c      3.374700 
_cell_angle_alpha     90.000000 
_cell_angle_beta     90.000000 
_cell_angle_gamma    120.000000 
loop_ 
  _space_group_symop_operation_xyz 
  'x, y, z' 
loop_ 
  _atom_site_fract_x
  _atom_site_fract_y
  _atom_site_fract_z
  _atom_site_type_symbol
  _atom_site_label
    0.485380     0.113920     0.249999 Nb Nb1
    0.514620     0.886080     0.749999 Nb Nb2
    0.886080     0.371460     0.249999 Nb Nb3
    0.628540     0.514619     0.249999 Nb Nb4
    0.371460     0.485380     0.749999 Nb Nb5
    0.113920     0.628540     0.749999 Nb Nb6
    0.344950     0.287230     0.249999 S S1
    0.655050     0.712770     0.749999 S S2
    0.712770     0.057721     0.249999 S S3
    0.942280     0.655050     0.249999 S S4
    0.057720     0.344949     0.749999 S S5
    0.287230     0.942280     0.749999 S S6
    0.333300     0.666700     0.249999 S S7
    0.666700     0.333299     0.749999 S S8
