# Generated by Catalysthub (Web: http://www.catalysthub.net/)
data_Nb6Sb2 
_symmetry_space_group_name_H-M          'P 1'
_cell_length_a      5.307320 
_cell_length_b      5.307320 
_cell_length_c      5.307320 
_cell_angle_alpha     90.000000 
_cell_angle_beta     90.000000 
_cell_angle_gamma     90.000000 
loop_ 
  _space_group_symop_operation_xyz 
  'x, y, z' 
loop_ 
  _atom_site_fract_x
  _atom_site_fract_y
  _atom_site_fract_z
  _atom_site_type_symbol
  _atom_site_label
    0.500000     0.250000     0.000000 Nb Nb1
    0.500000     0.750000     0.000000 Nb Nb2
    0.000000     0.500000     0.250000 Nb Nb3
    0.250000     0.000000     0.500000 Nb Nb4
    0.750000     0.000000     0.500000 Nb Nb5
    0.000000     0.500000     0.750000 Nb Nb6
    0.000000     0.000000     0.000000 Sb Sb1
    0.500000     0.500000     0.500000 Sb Sb2
