# Generated by Catalysthub (Web: http://www.catalysthub.net/)
data_AgMo6S8 
_symmetry_space_group_name_H-M          'P 1'
_cell_length_a      6.480627 
_cell_length_b      6.480627 
_cell_length_c      6.480628 
_cell_angle_alpha     91.891283 
_cell_angle_beta     91.891283 
_cell_angle_gamma     91.891281 
loop_ 
  _space_group_symop_operation_xyz 
  'x, y, z' 
loop_ 
  _atom_site_fract_x
  _atom_site_fract_y
  _atom_site_fract_z
  _atom_site_type_symbol
  _atom_site_label
    0.000000     0.000000     0.000000 Ag Ag1
    0.551999     0.409000     0.218000 Mo Mo1
    0.218000     0.551999     0.408999 Mo Mo2
    0.408999     0.218000     0.552000 Mo Mo3
    0.448001     0.591000     0.782000 Mo Mo4
    0.782000     0.448001     0.591001 Mo Mo5
    0.591001     0.782000     0.448000 Mo Mo6
    0.130000     0.383000     0.733001 S S1
    0.733000     0.130000     0.383001 S S2
    0.383001     0.733000     0.130001 S S3
    0.870000     0.617000     0.266999 S S4
    0.267000     0.870000     0.616999 S S5
    0.616999     0.267000     0.869999 S S6
    0.224000     0.224000     0.224000 S S7
    0.776000     0.776000     0.776000 S S8
