# Generated by Catalysthub (Web: http://www.catalysthub.net/)
data_Bi4Pd2 
_symmetry_space_group_name_H-M          'P 1'
_cell_length_a      4.304496 
_cell_length_b      5.695067 
_cell_length_c      6.773181 
_cell_angle_alpha    101.806509 
_cell_angle_beta    108.527530 
_cell_angle_gamma     90.000000 
loop_ 
  _space_group_symop_operation_xyz 
  'x, y, z' 
loop_ 
  _atom_site_fract_x
  _atom_site_fract_y
  _atom_site_fract_z
  _atom_site_type_symbol
  _atom_site_label
    0.574105     0.794178     0.148208 Bi Bi1
    0.154464     0.316665     0.308927 Bi Bi2
    0.845537     0.683336     0.691073 Bi Bi3
    0.425896     0.205823     0.851792 Bi Bi4
    0.225603     0.830375     0.451205 Pd Pd1
    0.774397     0.169625     0.548794 Pd Pd2
