# Generated by Catalysthub (Web: http://www.catalysthub.net/)
data_Ni2O6P2Sc2Sr4 
_symmetry_space_group_name_H-M          'P 1'
_cell_length_a      4.068700 
_cell_length_b      4.068700 
_cell_length_c     15.356300 
_cell_angle_alpha     90.000000 
_cell_angle_beta     90.000000 
_cell_angle_gamma     90.000000 
loop_ 
  _space_group_symop_operation_xyz 
  'x, y, z' 
loop_ 
  _atom_site_fract_x
  _atom_site_fract_y
  _atom_site_fract_z
  _atom_site_type_symbol
  _atom_site_label
    0.249999     0.749999     0.000000 Ni Ni1
    0.749999     0.249999     0.000000 Ni Ni2
    0.249999     0.249999     0.431100 O O1
    0.749999     0.749999     0.568900 O O2
    0.749999     0.249999     0.279700 O O3
    0.249999     0.749999     0.720300 O O4
    0.749999     0.249999     0.720300 O O5
    0.249999     0.749999     0.279700 O O6
    0.249999     0.249999     0.067100 P P1
    0.749999     0.749999     0.932900 P P2
    0.249999     0.249999     0.301900 Sc Sc1
    0.749999     0.749999     0.698100 Sc Sc2
    0.749999     0.749999     0.411400 Sr Sr1
    0.249999     0.249999     0.588600 Sr Sr2
    0.749999     0.749999     0.177200 Sr Sr3
    0.249999     0.249999     0.822800 Sr Sr4
