# Generated by Catalysthub (Web: http://www.catalysthub.net/)
data_O2W6 
_symmetry_space_group_name_H-M          'P 1'
_cell_length_a      4.890784 
_cell_length_b      4.890784 
_cell_length_c      4.890784 
_cell_angle_alpha     90.000000 
_cell_angle_beta     90.000000 
_cell_angle_gamma     90.000000 
loop_ 
  _space_group_symop_operation_xyz 
  'x, y, z' 
loop_ 
  _atom_site_fract_x
  _atom_site_fract_y
  _atom_site_fract_z
  _atom_site_type_symbol
  _atom_site_label
    0.000000     0.000000     0.000000 O O1
    0.500000     0.500000     0.500000 O O2
    0.500000     0.250001     0.000000 W W1
    0.500000     0.750000     0.000000 W W2
    0.000000     0.500000     0.250001 W W3
    0.250001     0.000000     0.500000 W W4
    0.750000     0.000000     0.500000 W W5
    0.000000     0.500000     0.750000 W W6
