# Generated by Catalysthub (Web: http://www.catalysthub.net/)
data_O12Os4Rb2 
_symmetry_space_group_name_H-M          'P 1'
_cell_length_a      7.295928 
_cell_length_b      7.295928 
_cell_length_c      7.295928 
_cell_angle_alpha     60.000000 
_cell_angle_beta     60.000000 
_cell_angle_gamma     60.000000 
loop_ 
  _space_group_symop_operation_xyz 
  'x, y, z' 
loop_ 
  _atom_site_fract_x
  _atom_site_fract_y
  _atom_site_fract_z
  _atom_site_type_symbol
  _atom_site_label
    0.935000     0.315000     0.315000 O O1
    0.315000     0.935000     0.935000 O O2
    0.315000     0.935000     0.315000 O O3
    0.315000     0.315000     0.935000 O O4
    0.935000     0.315000     0.935000 O O5
    0.935000     0.935000     0.315000 O O6
    0.685000     0.065000     0.685000 O O7
    0.065000     0.685000     0.065000 O O8
    0.065000     0.685000     0.685000 O O9
    0.685000     0.685000     0.065000 O O10
    0.685000     0.065000     0.065000 O O11
    0.065000     0.065000     0.685000 O O12
    0.000000     0.000000     0.000000 Os Os1
    0.000000     0.000000     0.500000 Os Os2
    0.500000     0.000000     0.000000 Os Os3
    0.000000     0.500000     0.000000 Os Os4
    0.375000     0.375000     0.375000 Rb Rb1
    0.625000     0.625000     0.625000 Rb Rb2
