# Generated by Catalysthub (Web: http://www.catalysthub.net/)
data_Os3P3Zr3 
_symmetry_space_group_name_H-M          'P 1'
_cell_length_a      6.457675 
_cell_length_b      6.457675 
_cell_length_c      3.875529 
_cell_angle_alpha     90.000000 
_cell_angle_beta     90.000000 
_cell_angle_gamma    120.001399 
loop_ 
  _space_group_symop_operation_xyz 
  'x, y, z' 
loop_ 
  _atom_site_fract_x
  _atom_site_fract_y
  _atom_site_fract_z
  _atom_site_type_symbol
  _atom_site_label
    0.246108     0.000014     0.000000 Os Os1
    0.000015     0.246108     0.000000 Os Os2
    0.753916     0.753915     0.000000 Os Os3
    0.666681     0.333350     0.000000 P P1
    0.333351     0.666681     0.000000 P P2
   -0.000002    -0.000002     0.499999 P P3
    0.583808     0.000014     0.499999 Zr Zr1
    0.416211     0.416210     0.499999 Zr Zr2
    0.000013     0.583808     0.499999 Zr Zr3
