# Generated by Catalysthub (Web: http://www.catalysthub.net/)
data_Os8Sc4 
_symmetry_space_group_name_H-M          'P 1'
_cell_length_a      5.016454 
_cell_length_b      5.016458 
_cell_length_c      8.204535 
_cell_angle_alpha     90.000041 
_cell_angle_beta     90.000123 
_cell_angle_gamma    120.002169 
loop_ 
  _space_group_symop_operation_xyz 
  'x, y, z' 
loop_ 
  _atom_site_fract_x
  _atom_site_fract_y
  _atom_site_fract_z
  _atom_site_type_symbol
  _atom_site_label
    0.655318     0.827671     0.749998 Os Os1
    0.172350     0.827640     0.750000 Os Os2
    0.827636     0.172361     0.250000 Os Os3
    0.344677     0.172334     0.250002 Os Os4
    0.172319     0.344675     0.750001 Os Os5
    0.827663     0.655318     0.249999 Os Os6
   -0.000001     0.000001     0.500002 Os Os7
   -0.000016    -0.000000    -0.000002 Os Os8
    0.333334     0.666667     0.434097 Sc Sc1
    0.666637     0.333331     0.934107 Sc Sc2
    0.666666     0.333333     0.565894 Sc Sc3
    0.333319     0.666667     0.065903 Sc Sc4
