# Generated by Catalysthub (Web: http://www.catalysthub.net/)
data_Os8Y4 
_symmetry_space_group_name_H-M          'P 1'
_cell_length_a      5.161436 
_cell_length_b      5.161436 
_cell_length_c      8.546034 
_cell_angle_alpha     90.000022 
_cell_angle_beta     90.000043 
_cell_angle_gamma    120.001068 
loop_ 
  _space_group_symop_operation_xyz 
  'x, y, z' 
loop_ 
  _atom_site_fract_x
  _atom_site_fract_y
  _atom_site_fract_z
  _atom_site_type_symbol
  _atom_site_label
    0.657371     0.828704     0.749998 Os Os1
    0.171337     0.828648     0.749999 Os Os2
    0.828655     0.171344     0.249999 Os Os3
    0.342618     0.171298     0.250003 Os Os4
    0.171285     0.342625     0.750002 Os Os5
    0.828700     0.657380     0.249998 Os Os6
    0.000001     0.000000     0.499994 Os Os7
   -0.000021    -0.000000     0.000005 Os Os8
    0.333337     0.666666     0.435209 Y Y1
    0.666640     0.333335     0.935239 Y Y2
    0.666663     0.333334     0.564763 Y Y3
    0.333317     0.666666     0.064790 Y Y4
