# Generated by Catalysthub (Web: http://www.catalysthub.net/)
data_Os8Zr4 
_symmetry_space_group_name_H-M          'P 1'
_cell_length_a      5.223898 
_cell_length_b      5.223901 
_cell_length_c      8.598908 
_cell_angle_alpha     90.000000 
_cell_angle_beta     90.000000 
_cell_angle_gamma    119.999979 
loop_ 
  _space_group_symop_operation_xyz 
  'x, y, z' 
loop_ 
  _atom_site_fract_x
  _atom_site_fract_y
  _atom_site_fract_z
  _atom_site_type_symbol
  _atom_site_label
    0.000000     0.000000     0.000000 Os Os1
    0.344608     0.172295     0.250000 Os Os2
    0.827686     0.172295     0.250000 Os Os3
    0.827694     0.655387     0.250000 Os Os4
    0.000000     0.000000     0.500000 Os Os5
    0.172306     0.344613     0.750000 Os Os6
    0.172314     0.827704     0.750000 Os Os7
    0.655390     0.827704     0.750000 Os Os8
    0.333330     0.666660     0.066698 Zr Zr1
    0.333330     0.666660     0.433302 Zr Zr2
    0.666670     0.333340     0.566698 Zr Zr3
    0.666670     0.333340     0.933302 Zr Zr4
