# Generated by Catalysthub (Web: http://www.catalysthub.net/)
data_P8Zr24 
_symmetry_space_group_name_H-M          'P 1'
_cell_length_a     10.799400 
_cell_length_b     10.799400 
_cell_length_c      5.354500 
_cell_angle_alpha     90.000000 
_cell_angle_beta     90.000000 
_cell_angle_gamma     90.000000 
loop_ 
  _space_group_symop_operation_xyz 
  'x, y, z' 
loop_ 
  _atom_site_fract_x
  _atom_site_fract_y
  _atom_site_fract_z
  _atom_site_type_symbol
  _atom_site_label
    0.044300     0.291000     0.032800 P P1
    0.455700     0.209000     0.032800 P P2
    0.709000     0.544300     0.532800 P P3
    0.791000     0.955700     0.532800 P P4
    0.955700     0.709000     0.967200 P P5
    0.544300     0.791000     0.967200 P P6
    0.291000     0.455700     0.467200 P P7
    0.209000     0.044300     0.467200 P P8
    0.070700     0.534600     0.236700 Zr Zr1
    0.429300     0.965400     0.236700 Zr Zr2
    0.465400     0.570700     0.736700 Zr Zr3
    0.034600     0.929300     0.736700 Zr Zr4
    0.929300     0.465400     0.763300 Zr Zr5
    0.570700     0.034600     0.763300 Zr Zr6
    0.534600     0.429300     0.263300 Zr Zr7
    0.965400     0.070700     0.263300 Zr Zr8
    0.112800     0.277700     0.527399 Zr Zr9
    0.387200     0.222300     0.527399 Zr Zr10
    0.722300     0.612800     0.027399 Zr Zr11
    0.777700     0.887200     0.027399 Zr Zr12
    0.887200     0.722300     0.472601 Zr Zr13
    0.612800     0.777700     0.472601 Zr Zr14
    0.277700     0.387200     0.972601 Zr Zr15
    0.222300     0.112800     0.972601 Zr Zr16
    0.164900     0.642300     0.713099 Zr Zr17
    0.335100     0.857700     0.713099 Zr Zr18
    0.357700     0.664900     0.213099 Zr Zr19
    0.142300     0.835100     0.213099 Zr Zr20
    0.835100     0.357700     0.286901 Zr Zr21
    0.664900     0.142300     0.286901 Zr Zr22
    0.642300     0.335100     0.786901 Zr Zr23
    0.857700     0.164900     0.786901 Zr Zr24
