# Generated by Catalysthub (Web: http://www.catalysthub.net/)
data_Bi4Rb2 
_symmetry_space_group_name_H-M          'P 1'
_cell_length_a      6.815232 
_cell_length_b      6.815232 
_cell_length_c      6.815232 
_cell_angle_alpha    120.000000 
_cell_angle_beta     90.000000 
_cell_angle_gamma    120.000000 
loop_ 
  _space_group_symop_operation_xyz 
  'x, y, z' 
loop_ 
  _atom_site_fract_x
  _atom_site_fract_y
  _atom_site_fract_z
  _atom_site_type_symbol
  _atom_site_label
    0.000000     0.000000     0.000000 Bi Bi1
    0.000000     0.000000     0.500000 Bi Bi2
    0.000000     0.500000     0.500000 Bi Bi3
    0.500000     0.500000     0.500000 Bi Bi4
    0.375000     0.749999     0.125001 Rb Rb1
    0.625000     0.249999     0.874999 Rb Rb2
