# Generated by Catalysthub (Web: http://www.catalysthub.net/)
data_Pb2Pt2 
_symmetry_space_group_name_H-M          'P 1'
_cell_length_a      3.958752 
_cell_length_b      3.958752 
_cell_length_c      5.469711 
_cell_angle_alpha     90.000000 
_cell_angle_beta     90.000000 
_cell_angle_gamma    120.002631 
loop_ 
  _space_group_symop_operation_xyz 
  'x, y, z' 
loop_ 
  _atom_site_fract_x
  _atom_site_fract_y
  _atom_site_fract_z
  _atom_site_type_symbol
  _atom_site_label
    0.000000     0.000000     0.500001 Pb Pb1
    0.000000     0.000000     0.000000 Pb Pb2
    0.666709     0.333287     0.749999 Pt Pt1
    0.333288     0.666712     0.250000 Pt Pt2
