# Generated by Catalysthub (Web: http://www.catalysthub.net/)
data_Pb8Pt2 
_symmetry_space_group_name_H-M          'P 1'
_cell_length_a      6.666000 
_cell_length_b      6.666000 
_cell_length_c      5.978000 
_cell_angle_alpha     90.000000 
_cell_angle_beta     90.000000 
_cell_angle_gamma     90.000000 
loop_ 
  _space_group_symop_operation_xyz 
  'x, y, z' 
loop_ 
  _atom_site_fract_x
  _atom_site_fract_y
  _atom_site_fract_z
  _atom_site_type_symbol
  _atom_site_label
    0.325000     0.175000     0.255000 Pb Pb1
    0.675000     0.825000     0.255000 Pb Pb2
    0.675000     0.175000     0.745000 Pb Pb3
    0.325000     0.825000     0.745000 Pb Pb4
    0.825000     0.675000     0.745000 Pb Pb5
    0.175000     0.325000     0.745000 Pb Pb6
    0.825000     0.325000     0.255000 Pb Pb7
    0.175000     0.675000     0.255000 Pb Pb8
    0.500000     0.500000     0.000000 Pt Pt1
    0.000000     0.000000     0.000000 Pt Pt2
