# Generated by Catalysthub (Web: http://www.catalysthub.net/)
data_Pd8Sn16 
_symmetry_space_group_name_H-M          'P 1'
_cell_length_a     13.024276 
_cell_length_b     13.024276 
_cell_length_c     13.024276 
_cell_angle_alpha    151.145547 
_cell_angle_beta    151.145547 
_cell_angle_gamma     41.262420 
loop_ 
  _space_group_symop_operation_xyz 
  'x, y, z' 
loop_ 
  _atom_site_fract_x
  _atom_site_fract_y
  _atom_site_fract_z
  _atom_site_type_symbol
  _atom_site_label
    0.059200     0.059200     0.000000 Pd Pd1
    0.190800     0.690800     0.500000 Pd Pd2
    0.440800     0.440800     0.000000 Pd Pd3
    0.809200     0.309200     0.500000 Pd Pd4
    0.690800     0.190800     0.500000 Pd Pd5
    0.559200     0.559200     0.000000 Pd Pd6
    0.309200     0.809200     0.500000 Pd Pd7
    0.940800     0.940800     0.000000 Pd Pd8
    0.408000     0.408000     0.316000 Sn Sn1
    0.092000     0.092000     0.684000 Sn Sn2
    0.842000     0.658000     0.500000 Sn Sn3
    0.158000     0.342000     0.500000 Sn Sn4
    0.342000     0.842000     0.184000 Sn Sn5
    0.658000     0.158000     0.816000 Sn Sn6
    0.908000     0.592000     0.000000 Sn Sn7
    0.592000     0.908000     0.000000 Sn Sn8
    0.375000     0.375000     0.500000 Sn Sn9
    0.875000     0.875000     0.500000 Sn Sn10
    0.125000     0.125000     0.500000 Sn Sn11
    0.625000     0.625000     0.500000 Sn Sn12
    0.375000     0.875000     0.000000 Sn Sn13
    0.875000     0.375000     0.000000 Sn Sn14
    0.625000     0.125000     0.000000 Sn Sn15
    0.125000     0.625000     0.000000 Sn Sn16
