# Generated by Catalysthub (Web: http://www.catalysthub.net/)
data_Bi8Rh4 
_symmetry_space_group_name_H-M          'P 1'
_cell_length_a      6.960000 
_cell_length_b      6.830000 
_cell_length_c      7.010000 
_cell_angle_alpha     90.000000 
_cell_angle_beta    118.200002 
_cell_angle_gamma     90.000000 
loop_ 
  _space_group_symop_operation_xyz 
  'x, y, z' 
loop_ 
  _atom_site_fract_x
  _atom_site_fract_y
  _atom_site_fract_z
  _atom_site_type_symbol
  _atom_site_label
    0.162000     0.638000     0.368000 Bi Bi1
    0.838000     0.138000     0.132000 Bi Bi2
    0.838000     0.362000     0.632001 Bi Bi3
    0.162000     0.862000     0.868000 Bi Bi4
    0.354000     0.359000     0.167999 Bi Bi5
    0.646000     0.859000     0.332001 Bi Bi6
    0.645999     0.641000     0.831999 Bi Bi7
    0.354000     0.141000     0.668000 Bi Bi8
    0.270000     0.000000     0.280000 Rh Rh1
    0.730000     0.500000     0.220001 Rh Rh2
    0.729999     0.000000     0.719999 Rh Rh3
    0.270000     0.500000     0.780000 Rh Rh4
