# Generated by Catalysthub (Web: http://www.catalysthub.net/)
data_Pt4Y2 
_symmetry_space_group_name_H-M          'P 1'
_cell_length_a      5.421142 
_cell_length_b      5.421142 
_cell_length_c      5.421142 
_cell_angle_alpha    120.000000 
_cell_angle_beta     90.000000 
_cell_angle_gamma    120.000000 
loop_ 
  _space_group_symop_operation_xyz 
  'x, y, z' 
loop_ 
  _atom_site_fract_x
  _atom_site_fract_y
  _atom_site_fract_z
  _atom_site_type_symbol
  _atom_site_label
    0.374999     0.749999     0.125000 Pt Pt1
    0.374999     0.250000     0.624999 Pt Pt2
    0.374999     0.749999     0.624999 Pt Pt3
    0.875000     0.250000     0.625000 Pt Pt4
    0.000000     0.000000     0.000000 Y Y1
    0.749999     0.499999     0.250000 Y Y2
