# Generated by Catalysthub (Web: http://www.catalysthub.net/)
data_Re16Si8 
_symmetry_space_group_name_H-M          'P 1'
_cell_length_a      5.409085 
_cell_length_b      9.611324 
_cell_length_c      6.174483 
_cell_angle_alpha     90.000000 
_cell_angle_beta     95.313066 
_cell_angle_gamma     90.000000 
loop_ 
  _space_group_symop_operation_xyz 
  'x, y, z' 
loop_ 
  _atom_site_fract_x
  _atom_site_fract_y
  _atom_site_fract_z
  _atom_site_type_symbol
  _atom_site_label
    0.634609     0.174266     0.416911 Re Re1
    0.365391     0.674266     0.083089 Re Re2
    0.365391     0.825734     0.583089 Re Re3
    0.634609     0.325735     0.916912 Re Re4
    0.581381     0.062435     0.797672 Re Re5
    0.418618     0.562436     0.702327 Re Re6
    0.418619     0.937565     0.202328 Re Re7
    0.581381     0.437565     0.297673 Re Re8
    0.296172     0.195079     0.087665 Re Re9
    0.703828     0.695080     0.412335 Re Re10
    0.703828     0.804920     0.912334 Re Re11
    0.296172     0.304921     0.587666 Re Re12
    0.887926     0.036819     0.166592 Re Re13
    0.112073     0.536819     0.333409 Re Re14
    0.112073     0.963181     0.833408 Re Re15
    0.887926     0.463181     0.666591 Re Re16
    0.200860     0.067428     0.481621 Si Si1
    0.799140     0.567428     0.018380 Si Si2
    0.799140     0.932573     0.518379 Si Si3
    0.200859     0.432572     0.981620 Si Si4
    0.966718     0.200261     0.771542 Si Si5
    0.033282     0.700260     0.728458 Si Si6
    0.033282     0.799740     0.228457 Si Si7
    0.966718     0.299740     0.271541 Si Si8
