# Generated by Catalysthub (Web: http://www.catalysthub.net/)
data_Re8Zr4 
_symmetry_space_group_name_H-M          'P 1'
_cell_length_a      5.288476 
_cell_length_b      5.288366 
_cell_length_c      8.668136 
_cell_angle_alpha     90.000000 
_cell_angle_beta     90.000000 
_cell_angle_gamma    120.000688 
loop_ 
  _space_group_symop_operation_xyz 
  'x, y, z' 
loop_ 
  _atom_site_fract_x
  _atom_site_fract_y
  _atom_site_fract_z
  _atom_site_type_symbol
  _atom_site_label
    0.000000     0.000000     0.000000 Re Re1
    0.342783     0.171384     0.250000 Re Re2
    0.828602     0.171384     0.250000 Re Re3
    0.828609     0.657217     0.250000 Re Re4
    0.000000     0.000000     0.500000 Re Re5
    0.171392     0.342784     0.750000 Re Re6
    0.171399     0.828616     0.750000 Re Re7
    0.657218     0.828616     0.750000 Re Re8
    0.333330     0.666661     0.061913 Zr Zr1
    0.333330     0.666661     0.438087 Zr Zr2
    0.666669     0.333338     0.561913 Zr Zr3
    0.666669     0.333338     0.938087 Zr Zr4
