# Generated by Catalysthub (Web: http://www.catalysthub.net/)
data_Rh4Se8 
_symmetry_space_group_name_H-M          'P 1'
_cell_length_a      6.069713 
_cell_length_b      6.069713 
_cell_length_c      6.069713 
_cell_angle_alpha     90.000000 
_cell_angle_beta     90.000000 
_cell_angle_gamma     90.000000 
loop_ 
  _space_group_symop_operation_xyz 
  'x, y, z' 
loop_ 
  _atom_site_fract_x
  _atom_site_fract_y
  _atom_site_fract_z
  _atom_site_type_symbol
  _atom_site_label
    0.000000     0.000000     0.000000 Rh Rh1
    0.500001     0.500001     0.000000 Rh Rh2
    0.500001     0.000000     0.500001 Rh Rh3
    0.000000     0.500001     0.500001 Rh Rh4
    0.877677     0.377678     0.122322 Se Se1
    0.622323     0.877677     0.122322 Se Se2
    0.377678     0.377678     0.377678 Se Se3
    0.122322     0.877677     0.377678 Se Se4
    0.877677     0.122322     0.622323 Se Se5
    0.622323     0.622323     0.622323 Se Se6
    0.377678     0.122322     0.877677 Se Se7
    0.122322     0.622323     0.877677 Se Se8
