# Generated by Catalysthub (Web: http://www.catalysthub.net/)
data_Bi2Te3 
_symmetry_space_group_name_H-M          'P 1'
_cell_length_a     10.575752 
_cell_length_b     10.575752 
_cell_length_c     10.575752 
_cell_angle_alpha     24.195020 
_cell_angle_beta     24.195020 
_cell_angle_gamma     24.195018 
loop_ 
  _space_group_symop_operation_xyz 
  'x, y, z' 
loop_ 
  _atom_site_fract_x
  _atom_site_fract_y
  _atom_site_fract_z
  _atom_site_type_symbol
  _atom_site_label
    0.400180     0.400181     0.400181 Bi Bi1
    0.599820     0.599820     0.599819 Bi Bi2
    0.000000     0.000000     0.000000 Te Te1
    0.210169     0.210170     0.210168 Te Te2
    0.789831     0.789831     0.789830 Te Te3
