# Generated by Catalysthub (Web: http://www.catalysthub.net/)
data_Rh4Si4Ti4 
_symmetry_space_group_name_H-M          'P 1'
_cell_length_a      6.244300 
_cell_length_b      3.818300 
_cell_length_c      7.225700 
_cell_angle_alpha     90.000000 
_cell_angle_beta     90.000000 
_cell_angle_gamma     90.000000 
loop_ 
  _space_group_symop_operation_xyz 
  'x, y, z' 
loop_ 
  _atom_site_fract_x
  _atom_site_fract_y
  _atom_site_fract_z
  _atom_site_type_symbol
  _atom_site_label
    0.858000     0.749999     0.439099 Rh Rh1
    0.642000     0.249999     0.939099 Rh Rh2
    0.358000     0.749999     0.060901 Rh Rh3
    0.142000     0.249999     0.560901 Rh Rh4
    0.234901     0.749999     0.377100 Si Si1
    0.265099     0.249999     0.877100 Si Si2
    0.734901     0.749999     0.122900 Si Si3
    0.765099     0.249999     0.622900 Si Si4
    0.978800     0.749999     0.819701 Ti Ti1
    0.521200     0.249999     0.319701 Ti Ti2
    0.478800     0.749999     0.680299 Ti Ti3
    0.021200     0.249999     0.180299 Ti Ti4
