# Generated by Catalysthub (Web: http://www.catalysthub.net/)
data_Ru3Si3Zr3 
_symmetry_space_group_name_H-M          'P 1'
_cell_length_a      6.683800 
_cell_length_b      6.683800 
_cell_length_c      3.671700 
_cell_angle_alpha     90.000000 
_cell_angle_beta     90.000000 
_cell_angle_gamma    119.999998 
loop_ 
  _space_group_symop_operation_xyz 
  'x, y, z' 
loop_ 
  _atom_site_fract_x
  _atom_site_fract_y
  _atom_site_fract_z
  _atom_site_type_symbol
  _atom_site_label
    0.248000     0.000000     0.000000 Ru Ru1
    0.000000     0.248000     0.000000 Ru Ru2
    0.752000     0.752000     0.000000 Ru Ru3
    0.000000     0.000000     0.500000 Si Si1
    0.333301     0.666701     0.000000 Si Si2
    0.666600     0.333299     0.000000 Si Si3
    0.579999     0.000000     0.500000 Zr Zr1
    0.000000     0.580000     0.500000 Zr Zr2
    0.420000     0.419999     0.500000 Zr Zr3
