# Generated by Catalysthub (Web: http://www.catalysthub.net/)
data_Sb2Ti6 
_symmetry_space_group_name_H-M          'P 1'
_cell_length_a      5.199854 
_cell_length_b      5.199854 
_cell_length_c      5.199854 
_cell_angle_alpha     90.000000 
_cell_angle_beta     90.000000 
_cell_angle_gamma     90.000000 
loop_ 
  _space_group_symop_operation_xyz 
  'x, y, z' 
loop_ 
  _atom_site_fract_x
  _atom_site_fract_y
  _atom_site_fract_z
  _atom_site_type_symbol
  _atom_site_label
    0.000000     0.000000     0.000000 Sb Sb1
    0.500001     0.500001     0.500001 Sb Sb2
    0.500001     0.249999     0.000000 Ti Ti1
    0.500001     0.750000     0.000000 Ti Ti2
    0.000000     0.500001     0.249999 Ti Ti3
    0.249999     0.000000     0.500001 Ti Ti4
    0.750000     0.000000     0.500001 Ti Ti5
    0.000000     0.500001     0.750000 Ti Ti6
