# Generated by Catalysthub (Web: http://www.catalysthub.net/)
data_Sb6Tl21 
_symmetry_space_group_name_H-M          'P 1'
_cell_length_a     10.061483 
_cell_length_b     10.061483 
_cell_length_c     10.061483 
_cell_angle_alpha    109.471221 
_cell_angle_beta    109.471221 
_cell_angle_gamma    109.471221 
loop_ 
  _space_group_symop_operation_xyz 
  'x, y, z' 
loop_ 
  _atom_site_fract_x
  _atom_site_fract_y
  _atom_site_fract_z
  _atom_site_type_symbol
  _atom_site_label
    0.313800     0.313800     0.000000 Sb Sb1
    0.686200     0.686200     0.000000 Sb Sb2
    0.000000     0.313800     0.313800 Sb Sb3
    0.313800     0.000000     0.313800 Sb Sb4
    0.000000     0.686200     0.686200 Sb Sb5
    0.686200     0.000000     0.686200 Sb Sb6
    0.349700     0.349700     0.699399 Tl Tl1
    0.650300     0.650300     0.300601 Tl Tl2
    0.650300     0.349700     0.000000 Tl Tl3
    0.349700     0.650300     0.000000 Tl Tl4
    0.699399     0.349700     0.349700 Tl Tl5
    0.349700     0.699399     0.349700 Tl Tl6
    0.000000     0.349700     0.650300 Tl Tl7
    0.650300     0.300601     0.650300 Tl Tl8
    0.300601     0.650300     0.650300 Tl Tl9
    0.349700     0.000000     0.650300 Tl Tl10
    0.000000     0.650300     0.349700 Tl Tl11
    0.650300     0.000000     0.349700 Tl Tl12
    0.340800     0.340800     0.340800 Tl Tl13
    0.000000     0.000000     0.659200 Tl Tl14
    0.659200     0.000000     0.000000 Tl Tl15
    0.000000     0.659200     0.000000 Tl Tl16
    0.659200     0.659200     0.659200 Tl Tl17
    0.000000     0.000000     0.340800 Tl Tl18
    0.000000     0.340800     0.000000 Tl Tl19
    0.340800     0.000000     0.000000 Tl Tl20
    0.000000     0.000000     0.000000 Tl Tl21
