# Generated by Catalysthub (Web: http://www.catalysthub.net/)
data_Sb16Sn12Sr4 
_symmetry_space_group_name_H-M          'P 1'
_cell_length_a     10.060000 
_cell_length_b      4.361400 
_cell_length_c     22.934000 
_cell_angle_alpha     90.000000 
_cell_angle_beta     90.000000 
_cell_angle_gamma     90.000000 
loop_ 
  _space_group_symop_operation_xyz 
  'x, y, z' 
loop_ 
  _atom_site_fract_x
  _atom_site_fract_y
  _atom_site_fract_z
  _atom_site_type_symbol
  _atom_site_label
    0.429940     0.750000     0.470860 Sb Sb1
    0.070060     0.250000     0.970860 Sb Sb2
    0.929940     0.750000     0.029140 Sb Sb3
    0.570060     0.250000     0.529140 Sb Sb4
    0.965590     0.750000     0.232780 Sb Sb5
    0.534410     0.250000     0.732780 Sb Sb6
    0.465590     0.750000     0.267220 Sb Sb7
    0.034410     0.250000     0.767220 Sb Sb8
    0.789080     0.750000     0.624660 Sb Sb9
    0.710920     0.250000     0.124660 Sb Sb10
    0.289080     0.750000     0.875340 Sb Sb11
    0.210920     0.250000     0.375340 Sb Sb12
    0.798270     0.750000     0.407760 Sb Sb13
    0.701730     0.250000     0.907760 Sb Sb14
    0.298270     0.750000     0.092240 Sb Sb15
    0.201730     0.250000     0.592240 Sb Sb16
    0.723480     0.750000     0.749770 Sn Sn1
    0.776520     0.250000     0.249770 Sn Sn2
    0.223480     0.750000     0.750230 Sn Sn3
    0.276520     0.250000     0.250230 Sn Sn4
    0.542420     0.750000     0.149730 Sn Sn5
    0.957580     0.250000     0.649730 Sn Sn6
    0.042420     0.750000     0.350270 Sn Sn7
    0.457580     0.250000     0.850270 Sn Sn8
    0.650500     0.750000     0.989890 Sn Sn9
    0.849500     0.250000     0.489890 Sn Sn10
    0.150500     0.750000     0.510110 Sn Sn11
    0.349500     0.250000     0.010110 Sn Sn12
    0.939200     0.750000     0.869950 Sr Sr1
    0.560800     0.250000     0.369950 Sr Sr2
    0.439200     0.750000     0.630050 Sr Sr3
    0.060800     0.250000     0.130050 Sr Sr4
