# Generated by Catalysthub (Web: http://www.catalysthub.net/)
data_Se12Ta4 
_symmetry_space_group_name_H-M          'P 1'
_cell_length_a     10.402000 
_cell_length_b      3.495000 
_cell_length_c      9.829000 
_cell_angle_alpha     90.000000 
_cell_angle_beta    106.259998 
_cell_angle_gamma     90.000000 
loop_ 
  _space_group_symop_operation_xyz 
  'x, y, z' 
loop_ 
  _atom_site_fract_x
  _atom_site_fract_y
  _atom_site_fract_z
  _atom_site_type_symbol
  _atom_site_label
    0.400600     0.250000     0.882000 Se Se1
    0.599400     0.750000     0.118000 Se Se2
    0.383200     0.250000     0.258200 Se Se3
    0.616800     0.750000     0.741800 Se Se4
    0.633800     0.250000     0.422200 Se Se5
    0.366200     0.750000     0.577800 Se Se6
    0.151200     0.250000     0.075000 Se Se7
    0.848800     0.750000     0.925000 Se Se8
    0.915400     0.250000     0.576000 Se Se9
    0.084600     0.750000     0.424000 Se Se10
    0.869100     0.250000     0.201100 Se Se11
    0.130900     0.750000     0.798900 Se Se12
    0.193700     0.250000     0.625000 Ta Ta1
    0.806300     0.750000     0.375000 Ta Ta2
    0.672300     0.250000     0.951800 Ta Ta3
    0.327700     0.750000     0.048200 Ta Ta4
