# Generated by Catalysthub (Web: http://www.catalysthub.net/)
data_Si4W6 
_symmetry_space_group_name_H-M          'P 1'
_cell_length_a      6.637383 
_cell_length_b      6.637383 
_cell_length_c      3.316119 
_cell_angle_alpha     90.000000 
_cell_angle_beta     90.000000 
_cell_angle_gamma     90.000000 
loop_ 
  _space_group_symop_operation_xyz 
  'x, y, z' 
loop_ 
  _atom_site_fract_x
  _atom_site_fract_y
  _atom_site_fract_z
  _atom_site_type_symbol
  _atom_site_label
    0.634105     0.134106     0.000000 Si Si1
    0.134106     0.365894     0.000000 Si Si2
    0.865894     0.634105     0.000000 Si Si3
    0.365894     0.865894     0.000000 Si Si4
    0.000000     0.000000     0.000000 W W1
    0.500000     0.500000     0.000000 W W2
    0.340187     0.159813     0.500000 W W3
    0.840188     0.340187     0.500000 W W4
    0.159813     0.659813     0.500000 W W5
    0.659813     0.840188     0.500000 W W6
