# Generated by Catalysthub (Web: http://www.catalysthub.net/)
data_Bi12Ni4 
_symmetry_space_group_name_H-M          'P 1'
_cell_length_a      8.494464 
_cell_length_b      3.925026 
_cell_length_c     10.910919 
_cell_angle_alpha     90.000000 
_cell_angle_beta     90.000000 
_cell_angle_gamma     90.000000 
loop_ 
  _space_group_symop_operation_xyz 
  'x, y, z' 
loop_ 
  _atom_site_fract_x
  _atom_site_fract_y
  _atom_site_fract_z
  _atom_site_type_symbol
  _atom_site_label
    0.393588     0.250001     0.594325 Bi Bi1
    0.106412     0.750000     0.094325 Bi Bi2
    0.893589     0.250001     0.905675 Bi Bi3
    0.606411     0.750000     0.405675 Bi Bi4
    0.411270     0.250001     0.190567 Bi Bi5
    0.088730     0.750000     0.690567 Bi Bi6
    0.911270     0.250001     0.309433 Bi Bi7
    0.588730     0.750000     0.809433 Bi Bi8
    0.291973     0.250001     0.884237 Bi Bi9
    0.208027     0.750000     0.384237 Bi Bi10
    0.791972     0.250001     0.615763 Bi Bi11
    0.708027     0.750000     0.115763 Bi Bi12
    0.093297     0.250001     0.520396 Ni Ni1
    0.406703     0.750000     0.020396 Ni Ni2
    0.593297     0.250001     0.979604 Ni Ni3
    0.906703     0.750000     0.479604 Ni Ni4
