# Generated by Catalysthub (Web: http://www.catalysthub.net/)
data_Sn2Ta6 
_symmetry_space_group_name_H-M          'P 1'
_cell_length_a      5.315910 
_cell_length_b      5.315910 
_cell_length_c      5.315910 
_cell_angle_alpha     90.000000 
_cell_angle_beta     90.000000 
_cell_angle_gamma     90.000000 
loop_ 
  _space_group_symop_operation_xyz 
  'x, y, z' 
loop_ 
  _atom_site_fract_x
  _atom_site_fract_y
  _atom_site_fract_z
  _atom_site_type_symbol
  _atom_site_label
    0.000000     0.000000     0.000000 Sn Sn1
    0.499999     0.499999     0.499999 Sn Sn2
    0.499999     0.250000     0.000000 Ta Ta1
    0.499999     0.750000     0.000000 Ta Ta2
    0.000000     0.499999     0.250000 Ta Ta3
    0.250000     0.000000     0.499999 Ta Ta4
    0.750000     0.000000     0.499999 Ta Ta5
    0.000000     0.499999     0.750000 Ta Ta6
