# Generated by Catalysthub (Web: http://www.catalysthub.net/)
data_Ta 
_symmetry_space_group_name_H-M          'P 1'
_cell_length_a      2.983991 
_cell_length_b      2.983991 
_cell_length_c      2.983991 
_cell_angle_alpha    120.000000 
_cell_angle_beta     90.000000 
_cell_angle_gamma    120.000000 
loop_ 
  _space_group_symop_operation_xyz 
  'x, y, z' 
loop_ 
  _atom_site_fract_x
  _atom_site_fract_y
  _atom_site_fract_z
  _atom_site_type_symbol
  _atom_site_label
    0.000000     0.000000     0.000000 Ta Ta1
