# Generated by Catalysthub (Web: http://www.catalysthub.net/)
data_Ta2V4 
_symmetry_space_group_name_H-M          'P 1'
_cell_length_a      4.952857 
_cell_length_b      4.952857 
_cell_length_c      4.952857 
_cell_angle_alpha     60.000000 
_cell_angle_beta     60.000000 
_cell_angle_gamma     60.000000 
loop_ 
  _space_group_symop_operation_xyz 
  'x, y, z' 
loop_ 
  _atom_site_fract_x
  _atom_site_fract_y
  _atom_site_fract_z
  _atom_site_type_symbol
  _atom_site_label
    0.250000     0.250000     0.250000 Ta Ta1
    0.000000     0.000000     0.000000 Ta Ta2
    0.625000     0.125000     0.625000 V V1
    0.125000     0.625000     0.625000 V V2
    0.625000     0.625000     0.125000 V V3
    0.625000     0.625000     0.625000 V V4
