# Generated by Catalysthub (Web: http://www.catalysthub.net/)
data_Te6Zr2 
_symmetry_space_group_name_H-M          'P 1'
_cell_length_a      5.925028 
_cell_length_b      3.940382 
_cell_length_c     10.214540 
_cell_angle_alpha     90.000000 
_cell_angle_beta     84.330363 
_cell_angle_gamma     90.000000 
loop_ 
  _space_group_symop_operation_xyz 
  'x, y, z' 
loop_ 
  _atom_site_fract_x
  _atom_site_fract_y
  _atom_site_fract_z
  _atom_site_type_symbol
  _atom_site_label
    0.077232     0.250001     0.162327 Te Te1
    0.559690     0.250001     0.171291 Te Te2
    0.762375     0.750001     0.445457 Te Te3
    0.237626     0.250001     0.554544 Te Te4
    0.440309     0.750001     0.828709 Te Te5
    0.922769     0.750001     0.837673 Te Te6
    0.283960     0.750001     0.332087 Zr Zr1
    0.716041     0.250001     0.667913 Zr Zr2
