# Generated by Catalysthub (Web: http://www.catalysthub.net/)
data_Au2Tl4 
_symmetry_space_group_name_H-M          'P 1'
_cell_length_a      5.668019 
_cell_length_b      5.900710 
_cell_length_c      5.900710 
_cell_angle_alpha    103.336614 
_cell_angle_beta     61.296125 
_cell_angle_gamma    118.703875 
loop_ 
  _space_group_symop_operation_xyz 
  'x, y, z' 
loop_ 
  _atom_site_fract_x
  _atom_site_fract_y
  _atom_site_fract_z
  _atom_site_type_symbol
  _atom_site_label
    0.249999     0.000000     0.000000 Au Au1
    0.749999     0.000000     0.000000 Au Au2
    0.154063     0.500000     0.191874 Tl Tl1
    0.654063     0.808126     0.499999 Tl Tl2
    0.345937     0.191874     0.500000 Tl Tl3
    0.845937     0.499999     0.808126 Tl Tl4
