# Generated by Catalysthub (Web: http://www.catalysthub.net/)
data_V4Zr2 
_symmetry_space_group_name_H-M          'P 1'
_cell_length_a      5.182789 
_cell_length_b      5.182789 
_cell_length_c      5.182789 
_cell_angle_alpha    120.000000 
_cell_angle_beta     90.000000 
_cell_angle_gamma    120.000000 
loop_ 
  _space_group_symop_operation_xyz 
  'x, y, z' 
loop_ 
  _atom_site_fract_x
  _atom_site_fract_y
  _atom_site_fract_z
  _atom_site_type_symbol
  _atom_site_label
    0.375000     0.750000     0.124999 V V1
    0.875001     0.250001     0.625000 V V2
    0.375000     0.250001     0.625001 V V3
    0.375000     0.750000     0.625001 V V4
    0.000000     0.000000     0.000000 Zr Zr1
    0.749999     0.499999     0.250000 Zr Zr2
