# Generated by Catalysthub (Web: http://www.catalysthub.net/)
data_Bi12Rh4 
_symmetry_space_group_name_H-M          'P 1'
_cell_length_a      8.966696 
_cell_length_b      4.289778 
_cell_length_c     11.500786 
_cell_angle_alpha     90.000000 
_cell_angle_beta     90.000000 
_cell_angle_gamma     90.000000 
loop_ 
  _space_group_symop_operation_xyz 
  'x, y, z' 
loop_ 
  _atom_site_fract_x
  _atom_site_fract_y
  _atom_site_fract_z
  _atom_site_type_symbol
  _atom_site_label
    0.101507     0.749999     0.091169 Bi Bi1
    0.698511     0.749999     0.113959 Bi Bi2
    0.403788     0.249999     0.178765 Bi Bi3
    0.903788     0.249999     0.321235 Bi Bi4
    0.198511     0.749999     0.386041 Bi Bi5
    0.601507     0.749999     0.408831 Bi Bi6
    0.398493     0.249999     0.591168 Bi Bi7
    0.801489     0.249999     0.613959 Bi Bi8
    0.096213     0.749999     0.678765 Bi Bi9
    0.596212     0.749999     0.821235 Bi Bi10
    0.301489     0.249999     0.886041 Bi Bi11
    0.898493     0.249999     0.908831 Bi Bi12
    0.398244     0.749999     0.020513 Rh Rh1
    0.898244     0.749999     0.479488 Rh Rh2
    0.101757     0.249999     0.520512 Rh Rh3
    0.601756     0.249999     0.979488 Rh Rh4
