# Generated by Catalysthub (Web: http://www.catalysthub.net/)
data_W4Zr2 
_symmetry_space_group_name_H-M          'P 1'
_cell_length_a      5.414420 
_cell_length_b      5.414420 
_cell_length_c      5.414420 
_cell_angle_alpha    120.000000 
_cell_angle_beta     90.000000 
_cell_angle_gamma    120.000000 
loop_ 
  _space_group_symop_operation_xyz 
  'x, y, z' 
loop_ 
  _atom_site_fract_x
  _atom_site_fract_y
  _atom_site_fract_z
  _atom_site_type_symbol
  _atom_site_label
    0.375000     0.750000     0.125001 W W1
    0.375000     0.249999     0.624999 W W2
    0.375000     0.750000     0.624999 W W3
    0.875000     0.249999     0.625000 W W4
    0.000000     0.000000     0.000000 Zr Zr1
    0.750001     0.500001     0.250000 Zr Zr2
