# Generated by Catalysthub (Web: http://www.catalysthub.net/)
data_Au4Pb2 
_symmetry_space_group_name_H-M          'P 1'
_cell_length_a      5.697072 
_cell_length_b      5.697072 
_cell_length_c      5.697072 
_cell_angle_alpha    120.000000 
_cell_angle_beta     90.000000 
_cell_angle_gamma    120.000000 
loop_ 
  _space_group_symop_operation_xyz 
  'x, y, z' 
loop_ 
  _atom_site_fract_x
  _atom_site_fract_y
  _atom_site_fract_z
  _atom_site_type_symbol
  _atom_site_label
    0.375000     0.750000     0.125000 Au Au1
    0.375000     0.250000     0.625000 Au Au2
    0.875000     0.250000     0.625000 Au Au3
    0.375000     0.750000     0.625000 Au Au4
    0.000000     0.000000     0.000000 Pb Pb1
    0.750000     0.500000     0.250000 Pb Pb2
