# Generated by Catalysthub (Web: http://www.catalysthub.net/)
data_B2C2Mo4 
_symmetry_space_group_name_H-M          'P 1'
_cell_length_a      3.072530 
_cell_length_b      3.111131 
_cell_length_c      8.907209 
_cell_angle_alpha     79.942221 
_cell_angle_beta     90.000000 
_cell_angle_gamma     90.000000 
loop_ 
  _space_group_symop_operation_xyz 
  'x, y, z' 
loop_ 
  _atom_site_fract_x
  _atom_site_fract_y
  _atom_site_fract_z
  _atom_site_type_symbol
  _atom_site_label
    0.750001     0.472140     0.055723 B B1
    0.249999     0.527861     0.944276 B B2
    0.249999     0.808818     0.382363 C C1
    0.750001     0.191183     0.617636 C C2
    0.249999     0.928176     0.143647 Mo Mo1
    0.750001     0.314529     0.370944 Mo Mo2
    0.249999     0.685472     0.629055 Mo Mo3
    0.750001     0.071825     0.856353 Mo Mo4
