# Generated by Catalysthub (Web: http://www.catalysthub.net/)
data_AlLa3 
_symmetry_space_group_name_H-M          'P 1'
_cell_length_a      5.674061 
_cell_length_b      5.674061 
_cell_length_c      5.674061 
_cell_angle_alpha     60.000000 
_cell_angle_beta     60.000000 
_cell_angle_gamma     60.000000 
loop_ 
  _space_group_symop_operation_xyz 
  'x, y, z' 
loop_ 
  _atom_site_fract_x
  _atom_site_fract_y
  _atom_site_fract_z
  _atom_site_type_symbol
  _atom_site_label
    0.750000     0.750000     0.750000 Al Al1
    0.000000     0.000000     0.000000 La La1
    0.500000     0.500000     0.500000 La La2
    0.250000     0.250000     0.250000 La La3
