# Generated by Catalysthub (Web: http://www.catalysthub.net/)
data_B2I6 
_symmetry_space_group_name_H-M          'P 1'
_cell_length_a      7.255596 
_cell_length_b      7.255366 
_cell_length_c      8.269608 
_cell_angle_alpha     90.000000 
_cell_angle_beta     90.000000 
_cell_angle_gamma    120.003140 
loop_ 
  _space_group_symop_operation_xyz 
  'x, y, z' 
loop_ 
  _atom_site_fract_x
  _atom_site_fract_y
  _atom_site_fract_z
  _atom_site_type_symbol
  _atom_site_label
    0.333305     0.666653     0.250000 B B1
    0.666694     0.333346     0.750000 B B2
    0.038858     0.373086     0.250000 I I1
    0.626983     0.665773     0.250000 I I2
    0.334255     0.961189     0.250000 I I3
    0.665745     0.038811     0.750000 I I4
    0.373018     0.334228     0.750000 I I5
    0.961142     0.626914     0.750000 I I6
