# Generated by Catalysthub (Web: http://www.catalysthub.net/)
data_B4Li8Pd12 
_symmetry_space_group_name_H-M          'P 1'
_cell_length_a      6.753400 
_cell_length_b      6.753400 
_cell_length_c      6.753400 
_cell_angle_alpha     90.000000 
_cell_angle_beta     90.000000 
_cell_angle_gamma     90.000000 
loop_ 
  _space_group_symop_operation_xyz 
  'x, y, z' 
loop_ 
  _atom_site_fract_x
  _atom_site_fract_y
  _atom_site_fract_z
  _atom_site_type_symbol
  _atom_site_label
    0.875001     0.375001     0.125001 B B1
    0.625001     0.625001     0.625001 B B2
    0.375001     0.125001     0.875001 B B3
    0.125001     0.875001     0.375001 B B4
    0.307199     0.307199     0.307199 Li Li1
    0.192801     0.692801     0.807199 Li Li2
    0.807199     0.192801     0.692801 Li Li3
    0.692801     0.807199     0.192801 Li Li4
    0.942801     0.942801     0.942801 Li Li5
    0.557199     0.057199     0.442801 Li Li6
    0.057199     0.442801     0.557199 Li Li7
    0.442801     0.557199     0.057199 Li Li8
    0.125001     0.304170     0.945830 Pd Pd1
    0.375001     0.695830     0.445830 Pd Pd2
    0.625001     0.195830     0.054170 Pd Pd3
    0.875001     0.804170     0.554170 Pd Pd4
    0.945830     0.125001     0.304170 Pd Pd5
    0.304170     0.945830     0.125001 Pd Pd6
    0.554170     0.875001     0.804170 Pd Pd7
    0.695830     0.445830     0.375001 Pd Pd8
    0.445830     0.375001     0.695830 Pd Pd9
    0.195830     0.054170     0.625001 Pd Pd10
    0.054170     0.625001     0.195830 Pd Pd11
    0.804170     0.554170     0.875001 Pd Pd12
