# Generated by Catalysthub (Web: http://www.catalysthub.net/)
data_B4Li8Pt12 
_symmetry_space_group_name_H-M          'P 1'
_cell_length_a      6.755200 
_cell_length_b      6.755200 
_cell_length_c      6.755200 
_cell_angle_alpha     90.000000 
_cell_angle_beta     90.000000 
_cell_angle_gamma     90.000000 
loop_ 
  _space_group_symop_operation_xyz 
  'x, y, z' 
loop_ 
  _atom_site_fract_x
  _atom_site_fract_y
  _atom_site_fract_z
  _atom_site_type_symbol
  _atom_site_label
    0.875000     0.375000     0.125000 B B1
    0.625000     0.625000     0.625000 B B2
    0.375000     0.125000     0.875000 B B3
    0.125000     0.875000     0.375000 B B4
    0.292999     0.292999     0.292999 Li Li1
    0.207001     0.707001     0.792999 Li Li2
    0.792999     0.207001     0.707001 Li Li3
    0.707001     0.792999     0.207001 Li Li4
    0.957001     0.957001     0.957001 Li Li5
    0.542999     0.042999     0.457001 Li Li6
    0.042999     0.457001     0.542999 Li Li7
    0.457001     0.542999     0.042999 Li Li8
    0.125000     0.307901     0.942099 Pt Pt1
    0.375000     0.692099     0.442099 Pt Pt2
    0.625000     0.192099     0.057901 Pt Pt3
    0.875000     0.807901     0.557901 Pt Pt4
    0.942099     0.125000     0.307901 Pt Pt5
    0.307901     0.942099     0.125000 Pt Pt6
    0.557901     0.875000     0.807901 Pt Pt7
    0.692099     0.442099     0.375000 Pt Pt8
    0.442099     0.375000     0.692099 Pt Pt9
    0.192099     0.057901     0.625000 Pt Pt10
    0.057901     0.625000     0.192099 Pt Pt11
    0.807901     0.557901     0.875000 Pt Pt12
