# Generated by Catalysthub (Web: http://www.catalysthub.net/)
data_B2Nb2 
_symmetry_space_group_name_H-M          'P 1'
_cell_length_a      3.170510 
_cell_length_b      3.309006 
_cell_length_c      4.696825 
_cell_angle_alpha     69.374396 
_cell_angle_beta     90.000000 
_cell_angle_gamma     90.000000 
loop_ 
  _space_group_symop_operation_xyz 
  'x, y, z' 
loop_ 
  _atom_site_fract_x
  _atom_site_fract_y
  _atom_site_fract_z
  _atom_site_type_symbol
  _atom_site_label
    0.749999     0.442666     0.114667 B B1
    0.250001     0.557335     0.885333 B B2
    0.250001     0.854653     0.290695 Nb Nb1
    0.749999     0.145347     0.709305 Nb Nb2
