# Generated by Catalysthub (Web: http://www.catalysthub.net/)
data_B2Re6 
_symmetry_space_group_name_H-M          'P 1'
_cell_length_a      2.901559 
_cell_length_b      4.913746 
_cell_length_c      7.321477 
_cell_angle_alpha     90.000000 
_cell_angle_beta     90.000000 
_cell_angle_gamma     72.827520 
loop_ 
  _space_group_symop_operation_xyz 
  'x, y, z' 
loop_ 
  _atom_site_fract_x
  _atom_site_fract_y
  _atom_site_fract_z
  _atom_site_type_symbol
  _atom_site_label
    0.745437     0.509126     0.250000 B B1
    0.254563     0.490873     0.750000 B B2
    0.133130     0.733741     0.064733 Re Re1
    0.424503     0.150994     0.250000 Re Re2
    0.133130     0.733741     0.435267 Re Re3
    0.866870     0.266260     0.564733 Re Re4
    0.575498     0.849005     0.750000 Re Re5
    0.866870     0.266260     0.935268 Re Re6
