# Generated by Catalysthub (Web: http://www.catalysthub.net/)
data_B4C4Y2 
_symmetry_space_group_name_H-M          'P 1'
_cell_length_a      3.796000 
_cell_length_b      3.796000 
_cell_length_c      7.124000 
_cell_angle_alpha     90.000000 
_cell_angle_beta     90.000000 
_cell_angle_gamma     90.000000 
loop_ 
  _space_group_symop_operation_xyz 
  'x, y, z' 
loop_ 
  _atom_site_fract_x
  _atom_site_fract_y
  _atom_site_fract_z
  _atom_site_type_symbol
  _atom_site_label
    0.231999     0.500000     0.500000 B B1
    0.768001     0.500000     0.500000 B B2
    0.500000     0.768001     0.000000 B B3
    0.500000     0.231999     0.000000 B B4
    0.500000     0.168001     0.500000 C C1
    0.500000     0.831999     0.500000 C C2
    0.831999     0.500000     0.000000 C C3
    0.168001     0.500000     0.000000 C C4
    0.000000     0.000000     0.250000 Y Y1
    0.000000     0.000000     0.750000 Y Y2
