# Generated by Catalysthub (Web: http://www.catalysthub.net/)
data_B2CeRu3 
_symmetry_space_group_name_H-M          'P 1'
_cell_length_a      5.610496 
_cell_length_b      5.610496 
_cell_length_c      3.044583 
_cell_angle_alpha     90.000000 
_cell_angle_beta     90.000000 
_cell_angle_gamma    120.000571 
loop_ 
  _space_group_symop_operation_xyz 
  'x, y, z' 
loop_ 
  _atom_site_fract_x
  _atom_site_fract_y
  _atom_site_fract_z
  _atom_site_type_symbol
  _atom_site_label
    0.666698     0.333391     0.000000 B B1
    0.333392     0.666699     0.000000 B B2
    0.000000     0.000000     0.000000 Ce Ce1
    0.500002     0.000007     0.500000 Ru Ru1
    0.499999     0.499999     0.500000 Ru Ru2
    0.000009     0.500004     0.500000 Ru Ru3
