# Generated by Catalysthub (Web: http://www.catalysthub.net/)
data_B8Ir4Mo8 
_symmetry_space_group_name_H-M          'P 1'
_cell_length_a      9.422000 
_cell_length_b      7.356000 
_cell_length_c      3.231000 
_cell_angle_alpha     90.000000 
_cell_angle_beta     90.000000 
_cell_angle_gamma     90.000000 
loop_ 
  _space_group_symop_operation_xyz 
  'x, y, z' 
loop_ 
  _atom_site_fract_x
  _atom_site_fract_y
  _atom_site_fract_z
  _atom_site_type_symbol
  _atom_site_label
    0.035300     0.616100     0.000000 B B1
    0.964700     0.383900     0.000000 B B2
    0.535300     0.883900     0.500000 B B3
    0.464700     0.116100     0.500000 B B4
    0.228200     0.622000     0.000000 B B5
    0.771800     0.378000     0.000000 B B6
    0.728200     0.878000     0.500000 B B7
    0.271800     0.122000     0.500000 B B8
    0.108700     0.122000     0.000000 Ir Ir1
    0.891300     0.878000     0.000000 Ir Ir2
    0.608700     0.378000     0.500000 Ir Ir3
    0.391300     0.622000     0.500000 Ir Ir4
    0.639700     0.070300     0.000000 Mo Mo1
    0.360300     0.929700     0.000000 Mo Mo2
    0.139700     0.429700     0.500000 Mo Mo3
    0.860300     0.570300     0.500000 Mo Mo4
    0.367600     0.312100     0.000000 Mo Mo5
    0.632400     0.687900     0.000000 Mo Mo6
    0.867600     0.187900     0.500000 Mo Mo7
    0.132400     0.812100     0.500000 Mo Mo8
