# Generated by Catalysthub (Web: http://www.catalysthub.net/)
data_B2Ir3La 
_symmetry_space_group_name_H-M          'P 1'
_cell_length_a      5.574959 
_cell_length_b      5.574959 
_cell_length_c      3.136097 
_cell_angle_alpha     90.000000 
_cell_angle_beta     90.000000 
_cell_angle_gamma    120.000916 
loop_ 
  _space_group_symop_operation_xyz 
  'x, y, z' 
loop_ 
  _atom_site_fract_x
  _atom_site_fract_y
  _atom_site_fract_z
  _atom_site_type_symbol
  _atom_site_label
    0.666701     0.333394     0.000000 B B1
    0.333395     0.666701     0.000000 B B2
    0.500001     0.000003     0.500000 Ir Ir1
    0.499999     0.499999     0.500000 Ir Ir2
    0.000004     0.500001     0.500000 Ir Ir3
    0.000000     0.000000     0.000000 La La1
