# Generated by Catalysthub (Web: http://www.catalysthub.net/)
data_B4Os2 
_symmetry_space_group_name_H-M          'P 1'
_cell_length_a      4.693444 
_cell_length_b      2.883810 
_cell_length_c      4.081743 
_cell_angle_alpha     90.000000 
_cell_angle_beta     90.000000 
_cell_angle_gamma     90.000000 
loop_ 
  _space_group_symop_operation_xyz 
  'x, y, z' 
loop_ 
  _atom_site_fract_x
  _atom_site_fract_y
  _atom_site_fract_z
  _atom_site_type_symbol
  _atom_site_label
    0.555515     0.750001     0.362350 B B1
    0.944485     0.750001     0.362350 B B2
    0.055514     0.249999     0.637649 B B3
    0.444486     0.249999     0.637649 B B4
    0.250000     0.249999     0.154135 Os Os1
    0.749999     0.750001     0.845867 Os Os2
