# Generated by Catalysthub (Web: http://www.catalysthub.net/)
data_B4Re2 
_symmetry_space_group_name_H-M          'P 1'
_cell_length_a      2.907599 
_cell_length_b      2.907536 
_cell_length_c      7.495829 
_cell_angle_alpha     90.000000 
_cell_angle_beta     90.000000 
_cell_angle_gamma    120.000718 
loop_ 
  _space_group_symop_operation_xyz 
  'x, y, z' 
loop_ 
  _atom_site_fract_x
  _atom_site_fract_y
  _atom_site_fract_z
  _atom_site_type_symbol
  _atom_site_label
    0.666687     0.333374     0.047885 B B1
    0.666687     0.333374     0.452114 B B2
    0.333313     0.666625     0.547886 B B3
    0.333313     0.666625     0.952115 B B4
    0.333315     0.666629     0.250000 Re Re1
    0.666687     0.333374     0.750000 Re Re2
