# Generated by Catalysthub (Web: http://www.catalysthub.net/)
data_Bi4Te3 
_symmetry_space_group_name_H-M          'P 1'
_cell_length_a     13.541007 
_cell_length_b     13.541007 
_cell_length_c     13.540990 
_cell_angle_alpha     17.840952 
_cell_angle_beta     17.840952 
_cell_angle_gamma     17.840996 
loop_ 
  _space_group_symop_operation_xyz 
  'x, y, z' 
loop_ 
  _atom_site_fract_x
  _atom_site_fract_y
  _atom_site_fract_z
  _atom_site_type_symbol
  _atom_site_label
    0.145070     0.145089     0.145079 Bi Bi1
    0.854911     0.854930     0.854921 Bi Bi2
    0.714898     0.714893     0.714896 Bi Bi3
    0.285107     0.285102     0.285105 Bi Bi4
    0.000002    -0.000002     0.000000 Te Te1
    0.425589     0.425575     0.425586 Te Te2
    0.574426     0.574412     0.574411 Te Te3
