# Generated by Catalysthub (Web: http://www.catalysthub.net/)
data_B4Ru2 
_symmetry_space_group_name_H-M          'P 1'
_cell_length_a      4.665401 
_cell_length_b      2.873928 
_cell_length_c      4.056231 
_cell_angle_alpha     90.000000 
_cell_angle_beta     90.000000 
_cell_angle_gamma     90.000000 
loop_ 
  _space_group_symop_operation_xyz 
  'x, y, z' 
loop_ 
  _atom_site_fract_x
  _atom_site_fract_y
  _atom_site_fract_z
  _atom_site_type_symbol
  _atom_site_label
    0.554773     0.750001     0.363293 B B1
    0.945226     0.750001     0.363293 B B2
    0.054773     0.249999     0.636707 B B3
    0.445226     0.249999     0.636707 B B4
    0.250000     0.249999     0.151478 Ru Ru1
    0.750000     0.750001     0.848522 Ru Ru2
