# Generated by Catalysthub (Web: http://www.catalysthub.net/)
data_B2Zr 
_symmetry_space_group_name_H-M          'P 1'
_cell_length_a      3.175320 
_cell_length_b      3.175320 
_cell_length_c      3.544741 
_cell_angle_alpha     90.000000 
_cell_angle_beta     90.000000 
_cell_angle_gamma    119.999774 
loop_ 
  _space_group_symop_operation_xyz 
  'x, y, z' 
loop_ 
  _atom_site_fract_x
  _atom_site_fract_y
  _atom_site_fract_z
  _atom_site_type_symbol
  _atom_site_label
    0.666703     0.333387     0.500000 B B1
    0.333387     0.666701     0.500000 B B2
    0.000012     0.000011     0.000000 Zr Zr1
