# Generated by Catalysthub (Web: http://www.catalysthub.net/)
data_B8Er2Rh8 
_symmetry_space_group_name_H-M          'P 1'
_cell_length_a      5.324759 
_cell_length_b      5.324759 
_cell_length_c      7.440364 
_cell_angle_alpha     90.000000 
_cell_angle_beta     90.000000 
_cell_angle_gamma     90.000000 
loop_ 
  _space_group_symop_operation_xyz 
  'x, y, z' 
loop_ 
  _atom_site_fract_x
  _atom_site_fract_y
  _atom_site_fract_z
  _atom_site_type_symbol
  _atom_site_label
    0.250000     0.081390     0.101777 B B1
    0.250000     0.418610     0.101777 B B2
    0.581390     0.750000     0.398224 B B3
    0.918611     0.750000     0.398224 B B4
    0.081390     0.250000     0.601777 B B5
    0.418610     0.250000     0.601777 B B6
    0.750000     0.581390     0.898224 B B7
    0.750000     0.918611     0.898224 B B8
    0.750000     0.250000     0.250000 Er Er1
    0.250000     0.750000     0.750000 Er Er2
    0.001414     0.750000     0.104194 Rh Rh1
    0.498586     0.750000     0.104194 Rh Rh2
    0.250000     0.501414     0.395806 Rh Rh3
    0.250000     0.998586     0.395806 Rh Rh4
    0.750000     0.001414     0.604195 Rh Rh5
    0.750000     0.498586     0.604195 Rh Rh6
    0.501414     0.250000     0.895806 Rh Rh7
    0.998586     0.250000     0.895806 Rh Rh8
