# Generated by Catalysthub (Web: http://www.catalysthub.net/)
data_B8Nd2Rh8 
_symmetry_space_group_name_H-M          'P 1'
_cell_length_a      5.333000 
_cell_length_b      5.333000 
_cell_length_c      7.468000 
_cell_angle_alpha     90.000000 
_cell_angle_beta     90.000000 
_cell_angle_gamma     90.000000 
loop_ 
  _space_group_symop_operation_xyz 
  'x, y, z' 
loop_ 
  _atom_site_fract_x
  _atom_site_fract_y
  _atom_site_fract_z
  _atom_site_type_symbol
  _atom_site_label
    0.250000     0.075001     0.100000 B B1
    0.250000     0.424999     0.100000 B B2
    0.750000     0.924999     0.900000 B B3
    0.750000     0.575001     0.900000 B B4
    0.924999     0.750000     0.400000 B B5
    0.575001     0.750000     0.400000 B B6
    0.075001     0.250000     0.600000 B B7
    0.424999     0.250000     0.600000 B B8
    0.750000     0.250000     0.250000 Nd Nd1
    0.250000     0.750000     0.750000 Nd Nd2
    0.250000     0.502001     0.385000 Rh Rh1
    0.250000     0.997999     0.385000 Rh Rh2
    0.750000     0.497999     0.615000 Rh Rh3
    0.750000     0.002001     0.615000 Rh Rh4
    0.497999     0.750000     0.115000 Rh Rh5
    0.002001     0.750000     0.115000 Rh Rh6
    0.502001     0.250000     0.885000 Rh Rh7
    0.997999     0.250000     0.885000 Rh Rh8
