# Generated by Catalysthub (Web: http://www.catalysthub.net/)
data_B8Rh8Y2 
_symmetry_space_group_name_H-M          'P 1'
_cell_length_a      5.308000 
_cell_length_b      5.308000 
_cell_length_c      7.403000 
_cell_angle_alpha     90.000000 
_cell_angle_beta     90.000000 
_cell_angle_gamma     90.000000 
loop_ 
  _space_group_symop_operation_xyz 
  'x, y, z' 
loop_ 
  _atom_site_fract_x
  _atom_site_fract_y
  _atom_site_fract_z
  _atom_site_type_symbol
  _atom_site_label
    0.000000     0.325000     0.847000 B B1
    0.000000     0.675000     0.847000 B B2
    0.500000     0.175000     0.653000 B B3
    0.500000     0.825000     0.653000 B B4
    0.675000     0.000000     0.153000 B B5
    0.325000     0.000000     0.153000 B B6
    0.825000     0.500000     0.347000 B B7
    0.175000     0.500000     0.347000 B B8
    0.000000     0.250000     0.124999 Rh Rh1
    0.000000     0.750000     0.124999 Rh Rh2
    0.500000     0.250000     0.374999 Rh Rh3
    0.500000     0.750000     0.374999 Rh Rh4
    0.750000     0.000000     0.874999 Rh Rh5
    0.250000     0.000000     0.874999 Rh Rh6
    0.750000     0.500000     0.625001 Rh Rh7
    0.250000     0.500000     0.625001 Rh Rh8
    0.000000     0.000000     0.500000 Y Y1
    0.500000     0.500000     0.000000 Y Y2
