# Generated by Catalysthub (Web: http://www.catalysthub.net/)
data_B6Nd 
_symmetry_space_group_name_H-M          'P 1'
_cell_length_a      4.125940 
_cell_length_b      4.125940 
_cell_length_c      4.125940 
_cell_angle_alpha     90.000000 
_cell_angle_beta     90.000000 
_cell_angle_gamma     90.000000 
loop_ 
  _space_group_symop_operation_xyz 
  'x, y, z' 
loop_ 
  _atom_site_fract_x
  _atom_site_fract_y
  _atom_site_fract_z
  _atom_site_type_symbol
  _atom_site_label
    0.500000     0.500000     0.199470 B B1
    0.500000     0.199470     0.500000 B B2
    0.199470     0.500000     0.500000 B B3
    0.800530     0.500000     0.500000 B B4
    0.500000     0.800530     0.500000 B B5
    0.500000     0.500000     0.800530 B B6
    0.000000     0.000000     0.000000 Nd Nd1
