# Generated by Catalysthub (Web: http://www.catalysthub.net/)
data_B6Y 
_symmetry_space_group_name_H-M          'P 1'
_cell_length_a      4.090921 
_cell_length_b      4.090921 
_cell_length_c      4.090921 
_cell_angle_alpha     90.000000 
_cell_angle_beta     90.000000 
_cell_angle_gamma     90.000000 
loop_ 
  _space_group_symop_operation_xyz 
  'x, y, z' 
loop_ 
  _atom_site_fract_x
  _atom_site_fract_y
  _atom_site_fract_z
  _atom_site_type_symbol
  _atom_site_label
    0.500000     0.500000     0.198818 B B1
    0.500000     0.198818     0.500000 B B2
    0.198818     0.500000     0.500000 B B3
    0.801181     0.500000     0.500000 B B4
    0.500000     0.801181     0.500000 B B5
    0.500000     0.500000     0.801181 B B6
    0.000000     0.000000     0.000000 Y Y1
