# Generated by Catalysthub (Web: http://www.catalysthub.net/)
data_B12Sc 
_symmetry_space_group_name_H-M          'P 1'
_cell_length_a      5.234004 
_cell_length_b      5.234004 
_cell_length_c      5.234004 
_cell_angle_alpha     60.000000 
_cell_angle_beta     60.000000 
_cell_angle_gamma     60.000000 
loop_ 
  _space_group_symop_operation_xyz 
  'x, y, z' 
loop_ 
  _atom_site_fract_x
  _atom_site_fract_y
  _atom_site_fract_z
  _atom_site_type_symbol
  _atom_site_label
    0.837001     0.500000     0.500000 B B1
    0.500000     0.837001     0.162999 B B2
    0.162999     0.500000     0.500000 B B3
    0.500000     0.162999     0.837001 B B4
    0.500000     0.837001     0.500000 B B5
    0.500000     0.500000     0.837001 B B6
    0.837001     0.500000     0.162999 B B7
    0.837001     0.162999     0.500000 B B8
    0.162999     0.500000     0.837001 B B9
    0.500000     0.500000     0.162999 B B10
    0.500000     0.162999     0.500000 B B11
    0.162999     0.837001     0.500000 B B12
    0.000000     0.000000     0.000000 Sc Sc1
