# Generated by Catalysthub (Web: http://www.catalysthub.net/)
data_Br2C2Y2 
_symmetry_space_group_name_H-M          'P 1'
_cell_length_a      3.792657 
_cell_length_b      4.000807 
_cell_length_c     10.089810 
_cell_angle_alpha     98.553970 
_cell_angle_beta     90.000000 
_cell_angle_gamma    118.293378 
loop_ 
  _space_group_symop_operation_xyz 
  'x, y, z' 
loop_ 
  _atom_site_fract_x
  _atom_site_fract_y
  _atom_site_fract_z
  _atom_site_type_symbol
  _atom_site_label
    0.796968     0.593936     0.335912 Br Br1
    0.203032     0.406064     0.664088 Br Br2
    0.087056     0.174112     0.037880 C C1
    0.912944     0.825888     0.962120 C C2
    0.407690     0.815380     0.146380 Y Y1
    0.592310     0.184620     0.853620 Y Y2
