# Generated by Catalysthub (Web: http://www.catalysthub.net/)
data_BaBi3 
_symmetry_space_group_name_H-M          'P 1'
_cell_length_a      6.212551 
_cell_length_b      6.212551 
_cell_length_c      6.212551 
_cell_angle_alpha     60.000000 
_cell_angle_beta     60.000000 
_cell_angle_gamma     60.000000 
loop_ 
  _space_group_symop_operation_xyz 
  'x, y, z' 
loop_ 
  _atom_site_fract_x
  _atom_site_fract_y
  _atom_site_fract_z
  _atom_site_type_symbol
  _atom_site_label
    0.750001     0.750001     0.750001 Ba Ba1
    0.000000     0.000000     0.000000 Bi Bi1
    0.500000     0.500000     0.500000 Bi Bi2
    0.250000     0.250000     0.250000 Bi Bi3
