# Generated by Catalysthub (Web: http://www.catalysthub.net/)
data_Ba2Sn6 
_symmetry_space_group_name_H-M          'P 1'
_cell_length_a      7.280151 
_cell_length_b      7.280362 
_cell_length_c      5.600276 
_cell_angle_alpha     90.000000 
_cell_angle_beta     90.000000 
_cell_angle_gamma    119.999039 
loop_ 
  _space_group_symop_operation_xyz 
  'x, y, z' 
loop_ 
  _atom_site_fract_x
  _atom_site_fract_y
  _atom_site_fract_z
  _atom_site_type_symbol
  _atom_site_label
    0.333314     0.666629     0.250000 Ba Ba1
    0.666686     0.333371     0.750000 Ba Ba2
    0.281200     0.140591     0.250000 Sn Sn1
    0.859390     0.140591     0.250000 Sn Sn2
    0.859407     0.718812     0.250000 Sn Sn3
    0.140594     0.281188     0.750000 Sn Sn4
    0.140609     0.859409     0.750000 Sn Sn5
    0.718800     0.859409     0.750000 Sn Sn6
