# Generated by Catalysthub (Web: http://www.catalysthub.net/)
data_Ba2CaCu2HgO6 
_symmetry_space_group_name_H-M          'P 1'
_cell_length_a      3.588833 
_cell_length_b      3.588833 
_cell_length_c     11.816041 
_cell_angle_alpha     90.000000 
_cell_angle_beta     90.000000 
_cell_angle_gamma     90.000000 
loop_ 
  _space_group_symop_operation_xyz 
  'x, y, z' 
loop_ 
  _atom_site_fract_x
  _atom_site_fract_y
  _atom_site_fract_z
  _atom_site_type_symbol
  _atom_site_label
    0.500001     0.500001     0.222650 Ba Ba1
    0.500001     0.500001     0.777350 Ba Ba2
    0.500001     0.500001     0.500000 Ca Ca1
    0.000000     0.000000     0.377967 Cu Cu1
    0.000000     0.000000     0.622033 Cu Cu2
    0.000000     0.000000     0.000000 Hg Hg1
    0.000000     0.000000     0.158163 O O1
    0.000000     0.000000     0.841838 O O2
    0.000000     0.500001     0.376611 O O3
    0.000000     0.500001     0.623389 O O4
    0.500001     0.000000     0.623389 O O5
    0.500001     0.000000     0.376611 O O6
