# Generated by Catalysthub (Web: http://www.catalysthub.net/)
data_Ba2Ca2Cu3HgO8 
_symmetry_space_group_name_H-M          'P 1'
_cell_length_a      3.695904 
_cell_length_b      3.695904 
_cell_length_c     14.837800 
_cell_angle_alpha     90.000000 
_cell_angle_beta     90.000000 
_cell_angle_gamma     90.000000 
loop_ 
  _space_group_symop_operation_xyz 
  'x, y, z' 
loop_ 
  _atom_site_fract_x
  _atom_site_fract_y
  _atom_site_fract_z
  _atom_site_type_symbol
  _atom_site_label
    0.500000     0.500000     0.171648 Ba Ba1
    0.500000     0.500000     0.828352 Ba Ba2
    0.500000     0.500000     0.398250 Ca Ca1
    0.500000     0.500000     0.601750 Ca Ca2
    0.000000     0.000000     0.300776 Cu Cu1
    0.000000     0.000000     0.699224 Cu Cu2
    0.000000     0.000000     0.500000 Cu Cu3
    0.000000     0.000000     0.000000 Hg Hg1
    0.000000     0.500000     0.500000 O O1
    0.500000     0.000000     0.500000 O O2
    0.000000     0.000000     0.133275 O O3
    0.000000     0.000000     0.866725 O O4
    0.500000     0.000000     0.300203 O O5
    0.500000     0.000000     0.699797 O O6
    0.000000     0.500000     0.699797 O O7
    0.000000     0.500000     0.300203 O O8
