# Generated by Catalysthub (Web: http://www.catalysthub.net/)
data_Ba2CuHgO4 
_symmetry_space_group_name_H-M          'P 1'
_cell_length_a      3.879100 
_cell_length_b      3.879100 
_cell_length_c      9.515900 
_cell_angle_alpha     90.000000 
_cell_angle_beta     90.000000 
_cell_angle_gamma     90.000000 
loop_ 
  _space_group_symop_operation_xyz 
  'x, y, z' 
loop_ 
  _atom_site_fract_x
  _atom_site_fract_y
  _atom_site_fract_z
  _atom_site_type_symbol
  _atom_site_label
    0.500000     0.500000     0.298200 Ba Ba1
    0.500000     0.500000     0.701800 Ba Ba2
    0.000000     0.000000     0.500000 Cu Cu1
    0.000000     0.000000     0.000000 Hg Hg1
    0.000000     0.000000     0.206900 O O1
    0.000000     0.000000     0.793100 O O2
    0.500000     0.000000     0.500000 O O3
    0.000000     0.500000     0.500000 O O4
