# Generated by Catalysthub (Web: http://www.catalysthub.net/)
data_Ba2Cu3DyO7 
_symmetry_space_group_name_H-M          'P 1'
_cell_length_a      3.793866 
_cell_length_b      3.873179 
_cell_length_c     11.566563 
_cell_angle_alpha     90.000000 
_cell_angle_beta     90.000000 
_cell_angle_gamma     90.000000 
loop_ 
  _space_group_symop_operation_xyz 
  'x, y, z' 
loop_ 
  _atom_site_fract_x
  _atom_site_fract_y
  _atom_site_fract_z
  _atom_site_type_symbol
  _atom_site_label
    0.499999     0.500000     0.182422 Ba Ba1
    0.499999     0.500000     0.817578 Ba Ba2
    0.000000     0.000000     0.000000 Cu Cu1
    0.000000     0.000000     0.353382 Cu Cu2
    0.000000     0.000000     0.646617 Cu Cu3
    0.499999     0.500000     0.500000 Dy Dy1
    0.000000     0.500000     0.000000 O O1
    0.000000     0.000000     0.158457 O O2
    0.000000     0.500000     0.373134 O O3
    0.499999     0.000000     0.379420 O O4
    0.499999     0.000000     0.620580 O O5
    0.000000     0.500000     0.626866 O O6
    0.000000     0.000000     0.841543 O O7
