# Generated by Catalysthub (Web: http://www.catalysthub.net/)
data_Ba2Cu3EuO7 
_symmetry_space_group_name_H-M          'P 1'
_cell_length_a      3.818155 
_cell_length_b      3.846447 
_cell_length_c     11.816547 
_cell_angle_alpha     90.000000 
_cell_angle_beta     90.000000 
_cell_angle_gamma     90.000000 
loop_ 
  _space_group_symop_operation_xyz 
  'x, y, z' 
loop_ 
  _atom_site_fract_x
  _atom_site_fract_y
  _atom_site_fract_z
  _atom_site_type_symbol
  _atom_site_label
    0.500001     0.499999     0.187068 Ba Ba1
    0.500001     0.499999     0.812932 Ba Ba2
    0.000000     0.000000     0.000000 Cu Cu1
    0.000000     0.000000     0.353795 Cu Cu2
    0.000000     0.000000     0.646206 Cu Cu3
    0.500001     0.499999     0.500000 Eu Eu1
    0.000000     0.499999     0.000000 O O1
    0.000000     0.000000     0.154995 O O2
    0.500001     0.000000     0.366032 O O3
    0.000000     0.499999     0.366071 O O4
    0.000000     0.499999     0.633928 O O5
    0.500001     0.000000     0.633967 O O6
    0.000000     0.000000     0.845004 O O7
