# Generated by Catalysthub (Web: http://www.catalysthub.net/)
data_Al8C4Mo12 
_symmetry_space_group_name_H-M          'P 1'
_cell_length_a      6.866000 
_cell_length_b      6.866000 
_cell_length_c      6.866000 
_cell_angle_alpha     90.000000 
_cell_angle_beta     90.000000 
_cell_angle_gamma     90.000000 
loop_ 
  _space_group_symop_operation_xyz 
  'x, y, z' 
loop_ 
  _atom_site_fract_x
  _atom_site_fract_y
  _atom_site_fract_z
  _atom_site_type_symbol
  _atom_site_label
    0.061001     0.061001     0.061001 Al Al1
    0.438999     0.938999     0.561001 Al Al2
    0.561001     0.438999     0.938999 Al Al3
    0.938999     0.561001     0.438999 Al Al4
    0.688999     0.688999     0.688999 Al Al5
    0.811001     0.311001     0.188999 Al Al6
    0.311001     0.188999     0.811001 Al Al7
    0.188999     0.811001     0.311001 Al Al8
    0.375000     0.375000     0.375000 C C1
    0.125000     0.625000     0.875000 C C2
    0.875000     0.125000     0.625000 C C3
    0.625000     0.875000     0.125000 C C4
    0.125000     0.206001     0.456001 Mo Mo1
    0.375000     0.793999     0.956001 Mo Mo2
    0.625000     0.293999     0.543999 Mo Mo3
    0.875000     0.706001     0.043999 Mo Mo4
    0.456001     0.125000     0.206001 Mo Mo5
    0.206001     0.456001     0.125000 Mo Mo6
    0.043999     0.875000     0.706001 Mo Mo7
    0.793999     0.956001     0.375000 Mo Mo8
    0.956001     0.375000     0.793999 Mo Mo9
    0.293999     0.543999     0.625000 Mo Mo10
    0.543999     0.625000     0.293999 Mo Mo11
    0.706001     0.043999     0.875000 Mo Mo12
