# Generated by Catalysthub (Web: http://www.catalysthub.net/)
data_CNb2 
_symmetry_space_group_name_H-M          'P 1'
_cell_length_a      3.145286 
_cell_length_b      3.145288 
_cell_length_c      4.996485 
_cell_angle_alpha     90.000000 
_cell_angle_beta     90.001731 
_cell_angle_gamma    120.000028 
loop_ 
  _space_group_symop_operation_xyz 
  'x, y, z' 
loop_ 
  _atom_site_fract_x
  _atom_site_fract_y
  _atom_site_fract_z
  _atom_site_type_symbol
  _atom_site_label
    0.000000     0.000000     0.000000 C C1
    0.333392     0.666695     0.250825 Nb Nb1
    0.666608     0.333303     0.749175 Nb Nb2
