# Generated by Catalysthub (Web: http://www.catalysthub.net/)
data_CNb2S2 
_symmetry_space_group_name_H-M          'P 1'
_cell_length_a      3.295283 
_cell_length_b      3.295572 
_cell_length_c      9.054080 
_cell_angle_alpha     90.000000 
_cell_angle_beta     89.998393 
_cell_angle_gamma    120.002902 
loop_ 
  _space_group_symop_operation_xyz 
  'x, y, z' 
loop_ 
  _atom_site_fract_x
  _atom_site_fract_y
  _atom_site_fract_z
  _atom_site_type_symbol
  _atom_site_label
    0.000000     0.000000     0.000000 C C1
    0.333456     0.666729     0.132092 Nb Nb1
    0.666543     0.333271     0.867908 Nb Nb2
    0.666598     0.333299     0.312969 S S1
    0.333400     0.666698     0.687031 S S2
