# Generated by Catalysthub (Web: http://www.catalysthub.net/)
data_As2Fe2La2O2 
_symmetry_space_group_name_H-M          'P 1'
_cell_length_a      4.097704 
_cell_length_b      4.097704 
_cell_length_c      9.088296 
_cell_angle_alpha     90.000000 
_cell_angle_beta     90.000000 
_cell_angle_gamma     89.998872 
loop_ 
  _space_group_symop_operation_xyz 
  'x, y, z' 
loop_ 
  _atom_site_fract_x
  _atom_site_fract_y
  _atom_site_fract_z
  _atom_site_type_symbol
  _atom_site_label
    0.749999     0.749999     0.327775 As As1
    0.250000     0.250000     0.672224 As As2
    0.749999     0.250000     0.500000 Fe Fe1
    0.250000     0.749999     0.500000 Fe Fe2
    0.250000     0.250000     0.131015 La La1
    0.749999     0.749999     0.868985 La La2
    0.749999     0.250000     0.000000 O O1
    0.250000     0.749999     0.000000 O O2
