# Generated by Catalysthub (Web: http://www.catalysthub.net/)
data_CTa2 
_symmetry_space_group_name_H-M          'P 1'
_cell_length_a      3.121709 
_cell_length_b      3.121706 
_cell_length_c      4.963060 
_cell_angle_alpha     90.000000 
_cell_angle_beta     90.001259 
_cell_angle_gamma    119.999965 
loop_ 
  _space_group_symop_operation_xyz 
  'x, y, z' 
loop_ 
  _atom_site_fract_x
  _atom_site_fract_y
  _atom_site_fract_z
  _atom_site_type_symbol
  _atom_site_label
    0.000000     0.000000     0.000000 C C1
    0.333391     0.666696     0.253967 Ta Ta1
    0.666609     0.333305     0.746034 Ta Ta2
