# Generated by Catalysthub (Web: http://www.catalysthub.net/)
data_Ba2Cu3GdO7 
_symmetry_space_group_name_H-M          'P 1'
_cell_length_a      3.825746 
_cell_length_b      3.883981 
_cell_length_c     11.654055 
_cell_angle_alpha     90.000000 
_cell_angle_beta     90.000000 
_cell_angle_gamma     90.000000 
loop_ 
  _space_group_symop_operation_xyz 
  'x, y, z' 
loop_ 
  _atom_site_fract_x
  _atom_site_fract_y
  _atom_site_fract_z
  _atom_site_type_symbol
  _atom_site_label
    0.499999     0.500000     0.182049 Ba Ba1
    0.499999     0.500000     0.817951 Ba Ba2
    0.000000     0.000000     0.000000 Cu Cu1
    0.000000     0.000000     0.352742 Cu Cu2
    0.000000     0.000000     0.647259 Cu Cu3
    0.499999     0.500000     0.500000 Gd Gd1
    0.000000     0.500000     0.000000 O O1
    0.000000     0.000000     0.158759 O O2
    0.499999     0.000000     0.375925 O O3
    0.000000     0.500000     0.376138 O O4
    0.000000     0.500000     0.623862 O O5
    0.499999     0.000000     0.624075 O O6
    0.000000     0.000000     0.841240 O O7
