# Generated by Catalysthub (Web: http://www.catalysthub.net/)
data_C2I2Y2 
_symmetry_space_group_name_H-M          'P 1'
_cell_length_a      3.887732 
_cell_length_b      4.112869 
_cell_length_c     10.494912 
_cell_angle_alpha     93.007475 
_cell_angle_beta     90.000000 
_cell_angle_gamma    118.205163 
loop_ 
  _space_group_symop_operation_xyz 
  'x, y, z' 
loop_ 
  _atom_site_fract_x
  _atom_site_fract_y
  _atom_site_fract_z
  _atom_site_type_symbol
  _atom_site_label
    0.423490     0.846980     0.031019 C C1
    0.576510     0.153018     0.968982 C C2
    0.829170     0.658338     0.333078 I I1
    0.170831     0.341661     0.666923 I I2
    0.146155     0.292309     0.134864 Y Y1
    0.853845     0.707688     0.865136 Y Y2
