# Generated by Catalysthub (Web: http://www.catalysthub.net/)
data_C12La8 
_symmetry_space_group_name_H-M          'P 1'
_cell_length_a      7.635746 
_cell_length_b      7.635746 
_cell_length_c      7.635746 
_cell_angle_alpha    109.471221 
_cell_angle_beta    109.471221 
_cell_angle_gamma    109.471221 
loop_ 
  _space_group_symop_operation_xyz 
  'x, y, z' 
loop_ 
  _atom_site_fract_x
  _atom_site_fract_y
  _atom_site_fract_z
  _atom_site_type_symbol
  _atom_site_label
    0.250000     0.550000     0.300000 C C1
    0.750000     0.950000     0.200000 C C2
    0.300000     0.250000     0.550000 C C3
    0.550000     0.300000     0.250000 C C4
    0.200000     0.750000     0.950000 C C5
    0.950000     0.200000     0.750000 C C6
    0.050000     0.750000     0.800000 C C7
    0.450000     0.250000     0.700000 C C8
    0.750000     0.800000     0.050000 C C9
    0.800000     0.050000     0.750000 C C10
    0.250000     0.700000     0.450000 C C11
    0.700000     0.450000     0.250000 C C12
    0.106000     0.106000     0.106000 La La1
    0.500000     0.000000     0.394000 La La2
    0.394000     0.500000     0.000000 La La3
   -0.000000     0.394000     0.500000 La La4
    0.606000     0.606000     0.606000 La La5
    0.500000     0.000000     0.894000 La La6
   -0.000000     0.894000     0.500000 La La7
    0.894000     0.500000     0.000000 La La8
