# Generated by Catalysthub (Web: http://www.catalysthub.net/)
data_C12Y8 
_symmetry_space_group_name_H-M          'P 1'
_cell_length_a      7.130420 
_cell_length_b      7.130420 
_cell_length_c      7.130420 
_cell_angle_alpha    109.471221 
_cell_angle_beta    109.471221 
_cell_angle_gamma    109.471221 
loop_ 
  _space_group_symop_operation_xyz 
  'x, y, z' 
loop_ 
  _atom_site_fract_x
  _atom_site_fract_y
  _atom_site_fract_z
  _atom_site_type_symbol
  _atom_site_label
    0.249999     0.532099     0.282100 C C1
    0.749999     0.967899     0.217900 C C2
    0.282100     0.249999     0.532099 C C3
    0.532099     0.282100     0.249999 C C4
    0.217900     0.749999     0.967899 C C5
    0.967899     0.217900     0.749999 C C6
    0.032101     0.749999     0.782100 C C7
    0.467899     0.249999     0.717899 C C8
    0.749999     0.782100     0.032101 C C9
    0.782100     0.032101     0.749999 C C10
    0.249999     0.717899     0.467899 C C11
    0.717899     0.467899     0.249999 C C12
    0.100001     0.100001     0.100001 Y Y1
    0.500000     0.000000     0.399999 Y Y2
    0.399999     0.500000     0.000000 Y Y3
    0.000000     0.399999     0.500000 Y Y4
    0.600000     0.600000     0.600000 Y Y5
    0.500000     0.000000     0.900000 Y Y6
    0.000000     0.900000     0.500000 Y Y7
    0.900000     0.500000     0.000000 Y Y8
