# Generated by Catalysthub (Web: http://www.catalysthub.net/)
data_CaCu2O7Sr2Tl 
_symmetry_space_group_name_H-M          'P 1'
_cell_length_a      3.621056 
_cell_length_b      3.621056 
_cell_length_c     11.574888 
_cell_angle_alpha     90.000000 
_cell_angle_beta     90.000000 
_cell_angle_gamma     90.000000 
loop_ 
  _space_group_symop_operation_xyz 
  'x, y, z' 
loop_ 
  _atom_site_fract_x
  _atom_site_fract_y
  _atom_site_fract_z
  _atom_site_type_symbol
  _atom_site_label
    0.500001     0.500001     0.500000 Ca Ca1
    0.000000     0.000000     0.363484 Cu Cu1
    0.000000     0.000000     0.636516 Cu Cu2
    0.000000     0.500001     0.372366 O O1
    0.000000     0.500001     0.627635 O O2
    0.500001     0.000000     0.627635 O O3
    0.500001     0.000000     0.372366 O O4
    0.000000     0.000000     0.176232 O O5
    0.000000     0.000000     0.823768 O O6
    0.500001     0.500001     0.000000 O O7
    0.500001     0.500001     0.211523 Sr Sr1
    0.500001     0.500001     0.788477 Sr Sr2
    0.000000     0.000000     0.000000 Tl Tl1
