# Generated by Catalysthub (Web: http://www.catalysthub.net/)
data_As2Fe2Li2 
_symmetry_space_group_name_H-M          'P 1'
_cell_length_a      3.768821 
_cell_length_b      3.768821 
_cell_length_c      6.104847 
_cell_angle_alpha     90.000000 
_cell_angle_beta     90.000000 
_cell_angle_gamma     90.000000 
loop_ 
  _space_group_symop_operation_xyz 
  'x, y, z' 
loop_ 
  _atom_site_fract_x
  _atom_site_fract_y
  _atom_site_fract_z
  _atom_site_type_symbol
  _atom_site_label
    0.250001     0.250001     0.273198 As As1
    0.750001     0.750001     0.726803 As As2
    0.750001     0.250001     0.499999 Fe Fe1
    0.250001     0.750001     0.499999 Fe Fe2
    0.750001     0.750001     0.167647 Li Li1
    0.250001     0.250001     0.832353 Li Li2
