# Generated by Catalysthub (Web: http://www.catalysthub.net/)
data_CaPb 
_symmetry_space_group_name_H-M          'P 1'
_cell_length_a      3.599416 
_cell_length_b      3.599416 
_cell_length_c      4.555874 
_cell_angle_alpha     90.000000 
_cell_angle_beta     90.000000 
_cell_angle_gamma     90.000000 
loop_ 
  _space_group_symop_operation_xyz 
  'x, y, z' 
loop_ 
  _atom_site_fract_x
  _atom_site_fract_y
  _atom_site_fract_z
  _atom_site_type_symbol
  _atom_site_label
    0.000000     0.000000     0.000000 Ca Ca1
    0.500000     0.500000     0.500001 Pb Pb1
