# Generated by Catalysthub (Web: http://www.catalysthub.net/)
data_Ca2Rh4 
_symmetry_space_group_name_H-M          'P 1'
_cell_length_a      5.320373 
_cell_length_b      5.320373 
_cell_length_c      5.320373 
_cell_angle_alpha    120.000000 
_cell_angle_beta     90.000000 
_cell_angle_gamma    120.000000 
loop_ 
  _space_group_symop_operation_xyz 
  'x, y, z' 
loop_ 
  _atom_site_fract_x
  _atom_site_fract_y
  _atom_site_fract_z
  _atom_site_type_symbol
  _atom_site_label
    0.374999     0.749999     0.124999 Ca Ca1
    0.625000     0.250001     0.875000 Ca Ca2
    0.000000     0.000000     0.000000 Rh Rh1
    0.000000     0.000000     0.500001 Rh Rh2
    0.000000     0.500001     0.500001 Rh Rh3
    0.500001     0.500001     0.500001 Rh Rh4
