# Generated by Catalysthub (Web: http://www.catalysthub.net/)
data_Ba2Cu3HoO7 
_symmetry_space_group_name_H-M          'P 1'
_cell_length_a      3.870249 
_cell_length_b      3.797250 
_cell_length_c     11.613392 
_cell_angle_alpha     90.000000 
_cell_angle_beta     90.000000 
_cell_angle_gamma     90.000000 
loop_ 
  _space_group_symop_operation_xyz 
  'x, y, z' 
loop_ 
  _atom_site_fract_x
  _atom_site_fract_y
  _atom_site_fract_z
  _atom_site_type_symbol
  _atom_site_label
    0.499999     0.500001     0.182626 Ba Ba1
    0.499999     0.500001     0.817374 Ba Ba2
    0.000000     0.000000     0.000000 Cu Cu1
    0.000000     0.000000     0.355279 Cu Cu2
    0.000000     0.000000     0.644721 Cu Cu3
    0.499999     0.500001     0.500000 Ho Ho1
    0.499999     0.000000     0.000000 O O1
    0.000000     0.000000     0.159038 O O2
    0.499999     0.000000     0.378730 O O3
    0.000000     0.500001     0.379477 O O4
    0.000000     0.500001     0.620524 O O5
    0.499999     0.000000     0.621270 O O6
    0.000000     0.000000     0.840962 O O7
