# Generated by Catalysthub (Web: http://www.catalysthub.net/)
data_As2Fe2O6Sr4V2 
_symmetry_space_group_name_H-M          'P 1'
_cell_length_a      3.929600 
_cell_length_b      3.929600 
_cell_length_c     15.673200 
_cell_angle_alpha     90.000000 
_cell_angle_beta     90.000000 
_cell_angle_gamma     90.000000 
loop_ 
  _space_group_symop_operation_xyz 
  'x, y, z' 
loop_ 
  _atom_site_fract_x
  _atom_site_fract_y
  _atom_site_fract_z
  _atom_site_type_symbol
  _atom_site_label
    0.750000     0.750000     0.909100 As As1
    0.250000     0.250000     0.090900 As As2
    0.750000     0.250000     0.000000 Fe Fe1
    0.250000     0.750000     0.000000 Fe Fe2
    0.750000     0.250000     0.292200 O O1
    0.250000     0.750000     0.707800 O O2
    0.750000     0.250000     0.707800 O O3
    0.250000     0.750000     0.292200 O O4
    0.750000     0.750000     0.568200 O O5
    0.250000     0.250000     0.431800 O O6
    0.250000     0.250000     0.809700 Sr Sr1
    0.750000     0.750000     0.190300 Sr Sr2
    0.250000     0.250000     0.585500 Sr Sr3
    0.750000     0.750000     0.414500 Sr Sr4
    0.750000     0.750000     0.691900 V V1
    0.250000     0.250000     0.308100 V V2
