# Generated by Catalysthub (Web: http://www.catalysthub.net/)
data_Cl2Hf2N2 
_symmetry_space_group_name_H-M          'P 1'
_cell_length_a      3.581833 
_cell_length_b      3.581833 
_cell_length_c      9.465084 
_cell_angle_alpha    100.906857 
_cell_angle_beta     79.093145 
_cell_angle_gamma    120.000002 
loop_ 
  _space_group_symop_operation_xyz 
  'x, y, z' 
loop_ 
  _atom_site_fract_x
  _atom_site_fract_y
  _atom_site_fract_z
  _atom_site_type_symbol
  _atom_site_label
    0.611829     0.388170     0.164511 Cl Cl1
    0.388170     0.611829     0.835489 Cl Cl2
    0.880154     0.119846     0.359541 Hf Hf1
    0.119848     0.880155     0.640459 Hf Hf2
    0.197653     0.802350     0.407046 N N1
    0.802349     0.197651     0.592954 N N2
