# Generated by Catalysthub (Web: http://www.catalysthub.net/)
data_Cl2N2Zr2 
_symmetry_space_group_name_H-M          'P 1'
_cell_length_a      3.625356 
_cell_length_b      3.625357 
_cell_length_c      9.377563 
_cell_angle_alpha    101.145402 
_cell_angle_beta     78.854596 
_cell_angle_gamma    120.000003 
loop_ 
  _space_group_symop_operation_xyz 
  'x, y, z' 
loop_ 
  _atom_site_fract_x
  _atom_site_fract_y
  _atom_site_fract_z
  _atom_site_type_symbol
  _atom_site_label
    0.614052     0.385948     0.157844 Cl Cl1
    0.385948     0.614052     0.842155 Cl Cl2
    0.198296     0.801705     0.405113 N N1
    0.801704     0.198295     0.594887 N N2
    0.881476     0.118523     0.355572 Zr Zr1
    0.118524     0.881477     0.644428 Zr Zr2
