# Generated by Catalysthub (Web: http://www.catalysthub.net/)
data_Co4La12 
_symmetry_space_group_name_H-M          'P 1'
_cell_length_a      6.871964 
_cell_length_b      9.758912 
_cell_length_c      6.308610 
_cell_angle_alpha     90.000000 
_cell_angle_beta     90.000000 
_cell_angle_gamma     90.000000 
loop_ 
  _space_group_symop_operation_xyz 
  'x, y, z' 
loop_ 
  _atom_site_fract_x
  _atom_site_fract_y
  _atom_site_fract_z
  _atom_site_type_symbol
  _atom_site_label
    0.618724     0.750000     0.063198 Co Co1
    0.881276     0.250000     0.563197 Co Co2
    0.118724     0.750000     0.436803 Co Co3
    0.381275     0.250000     0.936802 Co Co4
    0.167160     0.433059     0.669919 La La1
    0.332839     0.566941     0.169920 La La2
    0.667161     0.066941     0.830080 La La3
    0.832839     0.933059     0.330081 La La4
    0.832839     0.566941     0.330081 La La5
    0.667161     0.433059     0.830080 La La6
    0.332839     0.933059     0.169920 La La7
    0.167160     0.066941     0.669919 La La8
    0.952891     0.750000     0.855092 La La9
    0.547110     0.250000     0.355092 La La10
    0.452891     0.750000     0.644907 La La11
    0.047109     0.250000     0.144908 La La12
