# Generated by Catalysthub (Web: http://www.catalysthub.net/)
data_As3Hf3Os3 
_symmetry_space_group_name_H-M          'P 1'
_cell_length_a      6.573230 
_cell_length_b      6.573230 
_cell_length_c      3.947839 
_cell_angle_alpha     90.000000 
_cell_angle_beta     90.000000 
_cell_angle_gamma    119.999000 
loop_ 
  _space_group_symop_operation_xyz 
  'x, y, z' 
loop_ 
  _atom_site_fract_x
  _atom_site_fract_y
  _atom_site_fract_z
  _atom_site_type_symbol
  _atom_site_label
    0.666680     0.333355     0.000000 As As1
    0.333355     0.666680     0.000000 As As2
    0.000003     0.000004     0.500000 As As3
    0.580861     0.000017     0.500000 Hf Hf1
    0.419136     0.419135     0.500000 Hf Hf2
    0.000017     0.580862     0.500000 Hf Hf3
    0.246119     0.000013     0.000000 Os Os1
    0.000012     0.246117     0.000000 Os Os2
    0.753917     0.753917     0.000000 Os Os3
