# Generated by Catalysthub (Web: http://www.catalysthub.net/)
data_Co2Ti4 
_symmetry_space_group_name_H-M          'P 1'
_cell_length_a      4.700834 
_cell_length_b      4.700834 
_cell_length_c      4.700834 
_cell_angle_alpha     60.000000 
_cell_angle_beta     60.000000 
_cell_angle_gamma     60.000000 
loop_ 
  _space_group_symop_operation_xyz 
  'x, y, z' 
loop_ 
  _atom_site_fract_x
  _atom_site_fract_y
  _atom_site_fract_z
  _atom_site_type_symbol
  _atom_site_label
    0.000000     0.000000     0.000000 Co Co1
    0.250001     0.250001     0.250001 Co Co2
    0.625000     0.625000     0.625000 Ti Ti1
    0.625000     0.625000     0.124999 Ti Ti2
    0.124999     0.625000     0.625000 Ti Ti3
    0.625000     0.124999     0.625000 Ti Ti4
