# Generated by Catalysthub (Web: http://www.catalysthub.net/)
data_Co2Zr6 
_symmetry_space_group_name_H-M          'P 1'
_cell_length_a      3.260626 
_cell_length_b      5.638033 
_cell_length_c      9.038764 
_cell_angle_alpha     90.000000 
_cell_angle_beta     90.000000 
_cell_angle_gamma     73.192121 
loop_ 
  _space_group_symop_operation_xyz 
  'x, y, z' 
loop_ 
  _atom_site_fract_x
  _atom_site_fract_y
  _atom_site_fract_z
  _atom_site_type_symbol
  _atom_site_label
    0.724803     0.550395     0.250000 Co Co1
    0.275197     0.449604     0.750000 Co Co2
    0.134849     0.730301     0.055115 Zr Zr1
    0.417742     0.164514     0.250000 Zr Zr2
    0.134849     0.730301     0.444885 Zr Zr3
    0.865152     0.269698     0.555115 Zr Zr4
    0.582259     0.835485     0.750000 Zr Zr5
    0.865152     0.269698     0.944885 Zr Zr6
