# Generated by Catalysthub (Web: http://www.catalysthub.net/)
data_Co4Cu2S8 
_symmetry_space_group_name_H-M          'P 1'
_cell_length_a      6.687816 
_cell_length_b      6.687816 
_cell_length_c      6.687816 
_cell_angle_alpha     60.000000 
_cell_angle_beta     60.000000 
_cell_angle_gamma     60.000000 
loop_ 
  _space_group_symop_operation_xyz 
  'x, y, z' 
loop_ 
  _atom_site_fract_x
  _atom_site_fract_y
  _atom_site_fract_z
  _atom_site_type_symbol
  _atom_site_label
    0.625000     0.625000     0.625000 Co Co1
    0.625000     0.625000     0.125000 Co Co2
    0.125000     0.625000     0.625000 Co Co3
    0.625000     0.125000     0.625000 Co Co4
    0.000000     0.000000     0.000000 Cu Cu1
    0.250000     0.250000     0.250000 Cu Cu2
    0.375000     0.375000     0.375000 S S1
    0.375000     0.375000     0.875000 S S2
    0.875000     0.375000     0.375000 S S3
    0.375000     0.875000     0.375000 S S4
    0.875000     0.875000     0.875000 S S5
    0.875000     0.875000     0.375000 S S6
    0.875000     0.375000     0.875000 S S7
    0.375000     0.875000     0.875000 S S8
