# Generated by Catalysthub (Web: http://www.catalysthub.net/)
data_Ba2Cu3LaO7 
_symmetry_space_group_name_H-M          'P 1'
_cell_length_a      3.881580 
_cell_length_b      3.926614 
_cell_length_c     11.789195 
_cell_angle_alpha     90.000000 
_cell_angle_beta     90.000000 
_cell_angle_gamma     90.000000 
loop_ 
  _space_group_symop_operation_xyz 
  'x, y, z' 
loop_ 
  _atom_site_fract_x
  _atom_site_fract_y
  _atom_site_fract_z
  _atom_site_type_symbol
  _atom_site_label
    0.500000     0.500001     0.179467 Ba Ba1
    0.500000     0.500001     0.820534 Ba Ba2
    0.000000     0.000000     0.000000 Cu Cu1
    0.000000     0.000000     0.344801 Cu Cu2
    0.000000     0.000000     0.655198 Cu Cu3
    0.500000     0.500001     0.500000 La La1
    0.000000     0.500001     0.000000 O O1
    0.000000     0.000000     0.156244 O O2
    0.500000     0.000000     0.366872 O O3
    0.000000     0.500001     0.367470 O O4
    0.000000     0.500001     0.632530 O O5
    0.500000     0.000000     0.633128 O O6
    0.000000     0.000000     0.843756 O O7
