# Generated by Catalysthub (Web: http://www.catalysthub.net/)
data_Co8La6Sn26 
_symmetry_space_group_name_H-M          'P 1'
_cell_length_a      9.683917 
_cell_length_b      9.683917 
_cell_length_c      9.683917 
_cell_angle_alpha     90.000000 
_cell_angle_beta     90.000000 
_cell_angle_gamma     90.000000 
loop_ 
  _space_group_symop_operation_xyz 
  'x, y, z' 
loop_ 
  _atom_site_fract_x
  _atom_site_fract_y
  _atom_site_fract_z
  _atom_site_type_symbol
  _atom_site_label
    0.250000     0.250000     0.250000 Co Co1
    0.750000     0.250000     0.250000 Co Co2
    0.250000     0.750000     0.250000 Co Co3
    0.750000     0.750000     0.250000 Co Co4
    0.250000     0.250000     0.750000 Co Co5
    0.750000     0.250000     0.750000 Co Co6
    0.250000     0.750000     0.750000 Co Co7
    0.750000     0.750000     0.750000 Co Co8
    0.250000     0.500000     0.000000 La La1
    0.750000     0.500000     0.000000 La La2
    0.500000     0.000000     0.250000 La La3
    0.000000     0.250000     0.500000 La La4
    0.000000     0.750000     0.500000 La La5
    0.500000     0.000000     0.750000 La La6
    0.000000     0.000000     0.000000 Sn Sn1
    0.301844     0.157220     0.000000 Sn Sn2
    0.698157     0.157220     0.000000 Sn Sn3
    0.301844     0.842779     0.000000 Sn Sn4
    0.698157     0.842779     0.000000 Sn Sn5
    0.000000     0.301844     0.157220 Sn Sn6
    0.000000     0.698157     0.157220 Sn Sn7
    0.500000     0.342779     0.198156 Sn Sn8
    0.500000     0.657221     0.198156 Sn Sn9
    0.157220     0.000000     0.301844 Sn Sn10
    0.842779     0.000000     0.301844 Sn Sn11
    0.198156     0.500000     0.342779 Sn Sn12
    0.801844     0.500000     0.342779 Sn Sn13
    0.342779     0.198156     0.500000 Sn Sn14
    0.657221     0.198156     0.500000 Sn Sn15
    0.500000     0.500000     0.500000 Sn Sn16
    0.342779     0.801844     0.500000 Sn Sn17
    0.657221     0.801844     0.500000 Sn Sn18
    0.198156     0.500000     0.657221 Sn Sn19
    0.801844     0.500000     0.657221 Sn Sn20
    0.157220     0.000000     0.698157 Sn Sn21
    0.842779     0.000000     0.698157 Sn Sn22
    0.500000     0.342779     0.801844 Sn Sn23
    0.500000     0.657221     0.801844 Sn Sn24
    0.000000     0.301844     0.842779 Sn Sn25
    0.000000     0.698157     0.842779 Sn Sn26
