# Generated by Catalysthub (Web: http://www.catalysthub.net/)
data_Cr6Ru2 
_symmetry_space_group_name_H-M          'P 1'
_cell_length_a      4.609089 
_cell_length_b      4.609089 
_cell_length_c      4.609089 
_cell_angle_alpha     90.000000 
_cell_angle_beta     90.000000 
_cell_angle_gamma     90.000000 
loop_ 
  _space_group_symop_operation_xyz 
  'x, y, z' 
loop_ 
  _atom_site_fract_x
  _atom_site_fract_y
  _atom_site_fract_z
  _atom_site_type_symbol
  _atom_site_label
    0.499999     0.250000     0.000000 Cr Cr1
    0.499999     0.750001     0.000000 Cr Cr2
    0.000000     0.499999     0.250000 Cr Cr3
    0.250000     0.000000     0.499999 Cr Cr4
    0.750001     0.000000     0.499999 Cr Cr5
    0.000000     0.499999     0.750001 Cr Cr6
    0.000000     0.000000     0.000000 Ru Ru1
    0.499999     0.499999     0.499999 Ru Ru2
