# Generated by Catalysthub (Web: http://www.catalysthub.net/)
data_As3Hf3Ru3 
_symmetry_space_group_name_H-M          'P 1'
_cell_length_a      6.587495 
_cell_length_b      6.587495 
_cell_length_c      3.906303 
_cell_angle_alpha     90.000000 
_cell_angle_beta     90.000000 
_cell_angle_gamma    119.993134 
loop_ 
  _space_group_symop_operation_xyz 
  'x, y, z' 
loop_ 
  _atom_site_fract_x
  _atom_site_fract_y
  _atom_site_fract_z
  _atom_site_type_symbol
  _atom_site_label
    0.666678     0.333341     0.000000 As As1
    0.333341     0.666678     0.000000 As As2
    0.000012     0.000012     0.500000 As As3
    0.581752     0.000023     0.500000 Hf Hf1
    0.418220     0.418221     0.500000 Hf Hf2
    0.000023     0.581751     0.500000 Hf Hf3
    0.245465     0.000015     0.000000 Ru Ru1
    0.000014     0.245465     0.000000 Ru Ru2
    0.754594     0.754594     0.000000 Ru Ru3
