# Generated by Catalysthub (Web: http://www.catalysthub.net/)
data_Cs2O12Os4 
_symmetry_space_group_name_H-M          'P 1'
_cell_length_a      7.322798 
_cell_length_b      7.322798 
_cell_length_c      7.322798 
_cell_angle_alpha     60.000000 
_cell_angle_beta     60.000000 
_cell_angle_gamma     60.000000 
loop_ 
  _space_group_symop_operation_xyz 
  'x, y, z' 
loop_ 
  _atom_site_fract_x
  _atom_site_fract_y
  _atom_site_fract_z
  _atom_site_type_symbol
  _atom_site_label
    0.375000     0.375000     0.375000 Cs Cs1
    0.625000     0.625000     0.625000 Cs Cs2
    0.936000     0.314000     0.314000 O O1
    0.314000     0.936000     0.936000 O O2
    0.314000     0.936000     0.314000 O O3
    0.314000     0.314000     0.936000 O O4
    0.936000     0.314000     0.936000 O O5
    0.936000     0.936000     0.314000 O O6
    0.686000     0.064000     0.686000 O O7
    0.064000     0.686000     0.064000 O O8
    0.064000     0.686000     0.686000 O O9
    0.686000     0.686000     0.064000 O O10
    0.686000     0.064000     0.064000 O O11
    0.064000     0.064000     0.686000 O O12
    0.000000     0.000000     0.000000 Os Os1
    0.000000     0.000000     0.500000 Os Os2
    0.500000     0.000000     0.000000 Os Os3
    0.000000     0.500000     0.000000 Os Os4
