# Generated by Catalysthub (Web: http://www.catalysthub.net/)
data_Cu4La4 
_symmetry_space_group_name_H-M          'P 1'
_cell_length_a      7.340513 
_cell_length_b      4.519075 
_cell_length_c      5.839170 
_cell_angle_alpha     90.000000 
_cell_angle_beta     90.000000 
_cell_angle_gamma     90.000000 
loop_ 
  _space_group_symop_operation_xyz 
  'x, y, z' 
loop_ 
  _atom_site_fract_x
  _atom_site_fract_y
  _atom_site_fract_z
  _atom_site_type_symbol
  _atom_site_label
    0.464917     0.750001     0.115230 Cu Cu1
    0.964918     0.750001     0.384770 Cu Cu2
    0.035082     0.250000     0.615230 Cu Cu3
    0.535083     0.250000     0.884770 Cu Cu4
    0.174653     0.250000     0.136276 La La1
    0.674653     0.250000     0.363723 La La2
    0.325348     0.750001     0.636277 La La3
    0.825347     0.750001     0.863724 La La4
