# Generated by Catalysthub (Web: http://www.catalysthub.net/)
data_CuNd2O4 
_symmetry_space_group_name_H-M          'P 1'
_cell_length_a      6.694387 
_cell_length_b      6.694387 
_cell_length_c      6.694387 
_cell_angle_alpha    145.726920 
_cell_angle_beta    145.726920 
_cell_angle_gamma     49.252556 
loop_ 
  _space_group_symop_operation_xyz 
  'x, y, z' 
loop_ 
  _atom_site_fract_x
  _atom_site_fract_y
  _atom_site_fract_z
  _atom_site_type_symbol
  _atom_site_label
    0.000000     0.000000     0.000000 Cu Cu1
    0.351300     0.351300     0.000000 Nd Nd1
    0.648700     0.648700     0.000000 Nd Nd2
    0.500000     0.000000     0.500000 O O1
    0.000000     0.500000     0.500000 O O2
    0.750000     0.250000     0.500000 O O3
    0.250000     0.750000     0.500000 O O4
