# Generated by Catalysthub (Web: http://www.catalysthub.net/)
data_Cu2Nd4O8 
_symmetry_space_group_name_H-M          'P 1'
_cell_length_a      6.734155 
_cell_length_b      6.734155 
_cell_length_c      5.181500 
_cell_angle_alpha     90.000000 
_cell_angle_beta     90.000000 
_cell_angle_gamma     44.846256 
loop_ 
  _space_group_symop_operation_xyz 
  'x, y, z' 
loop_ 
  _atom_site_fract_x
  _atom_site_fract_y
  _atom_site_fract_z
  _atom_site_type_symbol
  _atom_site_label
    0.500000     0.500000     0.500000 Cu Cu1
    0.000000     0.000000     0.000000 Cu Cu2
    0.130000     0.130000     0.490001 Nd Nd1
    0.370000     0.370000     0.990001 Nd Nd2
    0.870000     0.870000     0.509999 Nd Nd3
    0.630000     0.630000     0.009999 Nd Nd4
    0.340000     0.340000     0.509999 O O1
    0.160000     0.160000     0.009999 O O2
    0.660000     0.660000     0.490001 O O3
    0.840000     0.840000     0.990001 O O4
    0.730000     0.230000     0.249999 O O5
    0.770000     0.270000     0.749999 O O6
    0.270000     0.770000     0.749999 O O7
    0.230000     0.730000     0.249999 O O8
