# Generated by Catalysthub (Web: http://www.catalysthub.net/)
data_Cu2O4Sr2 
_symmetry_space_group_name_H-M          'P 1'
_cell_length_a      3.557484 
_cell_length_b      3.924620 
_cell_length_c      8.289728 
_cell_angle_alpha     90.000000 
_cell_angle_beta     77.609591 
_cell_angle_gamma     90.000000 
loop_ 
  _space_group_symop_operation_xyz 
  'x, y, z' 
loop_ 
  _atom_site_fract_x
  _atom_site_fract_y
  _atom_site_fract_z
  _atom_site_type_symbol
  _atom_site_label
    0.938421     0.249999     0.123155 Cu Cu1
    0.061576     0.749999     0.876846 Cu Cu2
    0.944746     0.749999     0.110506 O O1
    0.820860     0.249999     0.358277 O O2
    0.179138     0.749999     0.641724 O O3
    0.055253     0.249999     0.889493 O O4
    0.332182     0.749999     0.335635 Sr Sr1
    0.667817     0.249999     0.664364 Sr Sr2
