# Generated by Catalysthub (Web: http://www.catalysthub.net/)
data_Cu2Rh4S8 
_symmetry_space_group_name_H-M          'P 1'
_cell_length_a      6.921161 
_cell_length_b      6.921161 
_cell_length_c      6.921161 
_cell_angle_alpha     60.000000 
_cell_angle_beta     60.000000 
_cell_angle_gamma     60.000000 
loop_ 
  _space_group_symop_operation_xyz 
  'x, y, z' 
loop_ 
  _atom_site_fract_x
  _atom_site_fract_y
  _atom_site_fract_z
  _atom_site_type_symbol
  _atom_site_label
    0.000000     0.000000     0.000000 Cu Cu1
    0.250000     0.250000     0.250000 Cu Cu2
    0.625000     0.625000     0.625000 Rh Rh1
    0.625000     0.625000     0.125000 Rh Rh2
    0.125000     0.625000     0.625000 Rh Rh3
    0.625000     0.125000     0.625000 Rh Rh4
    0.384000     0.384000     0.384000 S S1
    0.384000     0.384000     0.848001 S S2
    0.848001     0.384000     0.384000 S S3
    0.384000     0.848001     0.384000 S S4
    0.866000     0.866000     0.866000 S S5
    0.866000     0.866000     0.401999 S S6
    0.866000     0.401999     0.866000 S S7
    0.401999     0.866000     0.866000 S S8
