# Generated by Catalysthub (Web: http://www.catalysthub.net/)
data_Ba2Cu3NdO7 
_symmetry_space_group_name_H-M          'P 1'
_cell_length_a      3.852967 
_cell_length_b      3.916046 
_cell_length_c     11.728190 
_cell_angle_alpha     90.000000 
_cell_angle_beta     90.000000 
_cell_angle_gamma     90.000000 
loop_ 
  _space_group_symop_operation_xyz 
  'x, y, z' 
loop_ 
  _atom_site_fract_x
  _atom_site_fract_y
  _atom_site_fract_z
  _atom_site_type_symbol
  _atom_site_label
    0.499999     0.499999     0.180589 Ba Ba1
    0.499999     0.499999     0.819411 Ba Ba2
    0.000000     0.000000     0.000000 Cu Cu1
    0.000000     0.000000     0.348624 Cu Cu2
    0.000000     0.000000     0.651376 Cu Cu3
    0.499999     0.499999     0.500000 Nd Nd1
    0.000000     0.499999     0.000000 O O1
    0.000000     0.000000     0.157005 O O2
    0.000000     0.499999     0.370426 O O3
    0.499999     0.000000     0.370704 O O4
    0.499999     0.000000     0.629296 O O5
    0.000000     0.499999     0.629574 O O6
    0.000000     0.000000     0.842995 O O7
