# Generated by Catalysthub (Web: http://www.catalysthub.net/)
data_Cu2Rh4Se8 
_symmetry_space_group_name_H-M          'P 1'
_cell_length_a      7.257744 
_cell_length_b      7.257744 
_cell_length_c      7.257744 
_cell_angle_alpha     60.000000 
_cell_angle_beta     60.000000 
_cell_angle_gamma     60.000000 
loop_ 
  _space_group_symop_operation_xyz 
  'x, y, z' 
loop_ 
  _atom_site_fract_x
  _atom_site_fract_y
  _atom_site_fract_z
  _atom_site_type_symbol
  _atom_site_label
    0.000000     0.000000     0.000000 Cu Cu1
    0.250000     0.250000     0.250000 Cu Cu2
    0.625000     0.625000     0.625000 Rh Rh1
    0.625000     0.625000     0.125000 Rh Rh2
    0.125000     0.625000     0.625000 Rh Rh3
    0.625000     0.125000     0.625000 Rh Rh4
    0.379000     0.379000     0.379000 Se Se1
    0.379000     0.379000     0.862999 Se Se2
    0.862999     0.379000     0.379000 Se Se3
    0.379000     0.862999     0.379000 Se Se4
    0.871000     0.871000     0.871000 Se Se5
    0.871000     0.871000     0.387001 Se Se6
    0.871000     0.387001     0.871000 Se Se7
    0.387001     0.871000     0.871000 Se Se8
