# Generated by Catalysthub (Web: http://www.catalysthub.net/)
data_As2La2Ni2O2 
_symmetry_space_group_name_H-M          'P 1'
_cell_length_a      4.112724 
_cell_length_b      4.112724 
_cell_length_c      8.058983 
_cell_angle_alpha     90.000000 
_cell_angle_beta     90.000000 
_cell_angle_gamma     90.000000 
loop_ 
  _space_group_symop_operation_xyz 
  'x, y, z' 
loop_ 
  _atom_site_fract_x
  _atom_site_fract_y
  _atom_site_fract_z
  _atom_site_type_symbol
  _atom_site_label
    0.749999     0.749999     0.372438 As As1
    0.250000     0.250000     0.627562 As As2
    0.250000     0.250000     0.149658 La La1
    0.749999     0.749999     0.850342 La La2
    0.749999     0.250000     0.500000 Ni Ni1
    0.250000     0.749999     0.500000 Ni Ni2
    0.749999     0.250000     0.000000 O O1
    0.250000     0.749999     0.000000 O O2
