# Generated by Catalysthub (Web: http://www.catalysthub.net/)
data_Cu4Gd2O16Ru2Sr4 
_symmetry_space_group_name_H-M          'P 1'
_cell_length_a      5.427000 
_cell_length_b      5.429200 
_cell_length_c     11.576200 
_cell_angle_alpha     90.000000 
_cell_angle_beta     90.000000 
_cell_angle_gamma     90.000000 
loop_ 
  _space_group_symop_operation_xyz 
  'x, y, z' 
loop_ 
  _atom_site_fract_x
  _atom_site_fract_y
  _atom_site_fract_z
  _atom_site_type_symbol
  _atom_site_label
    0.000000     0.000000     0.646300 Cu Cu1
    0.500000     0.500000     0.353700 Cu Cu2
    0.000000     0.000000     0.353700 Cu Cu3
    0.500000     0.500000     0.646300 Cu Cu4
    0.000000     0.500000     0.500000 Gd Gd1
    0.500000     0.000000     0.500000 Gd Gd2
    0.250000     0.250000     0.373000 O O1
    0.750000     0.750000     0.373000 O O2
    0.750000     0.250000     0.627000 O O3
    0.250000     0.750000     0.627000 O O4
    0.750000     0.750000     0.627000 O O5
    0.250000     0.250000     0.627000 O O6
    0.250000     0.750000     0.373000 O O7
    0.750000     0.250000     0.373000 O O8
    0.311100     0.195101     0.000000 O O9
    0.688900     0.804899     0.000000 O O10
    0.811100     0.304899     0.000000 O O11
    0.188900     0.695101     0.000000 O O12
    0.000000     0.000000     0.831500 O O13
    0.500000     0.500000     0.168500 O O14
    0.000000     0.000000     0.168500 O O15
    0.500000     0.500000     0.831500 O O16
    0.000000     0.000000     0.000000 Ru Ru1
    0.500000     0.500000     0.000000 Ru Ru2
    0.000000     0.500000     0.809000 Sr Sr1
    0.500000     0.000000     0.191000 Sr Sr2
    0.000000     0.500000     0.191000 Sr Sr3
    0.500000     0.000000     0.809000 Sr Sr4
