# Generated by Catalysthub (Web: http://www.catalysthub.net/)
data_Cu3DyO8Pb2Sr2 
_symmetry_space_group_name_H-M          'P 1'
_cell_length_a      3.558679 
_cell_length_b      3.558679 
_cell_length_c     15.119161 
_cell_angle_alpha     90.000000 
_cell_angle_beta     90.000000 
_cell_angle_gamma     90.228330 
loop_ 
  _space_group_symop_operation_xyz 
  'x, y, z' 
loop_ 
  _atom_site_fract_x
  _atom_site_fract_y
  _atom_site_fract_z
  _atom_site_type_symbol
  _atom_site_label
    0.500001     0.500001     0.103676 Cu Cu1
    0.000000     0.000000     0.500000 Cu Cu2
    0.500001     0.500001     0.896324 Cu Cu3
    0.000000     0.000000     0.000000 Dy Dy1
    0.500000    -0.000001     0.095943 O O1
   -0.000001     0.500000     0.095943 O O2
    0.500001     0.500001     0.240615 O O3
    0.000000     0.000000     0.382507 O O4
    0.000000     0.000000     0.617493 O O5
    0.500001     0.500001     0.759385 O O6
    0.500000    -0.000001     0.904057 O O7
   -0.000001     0.500000     0.904057 O O8
    0.500001     0.500001     0.386220 Pb Pb1
    0.500001     0.500001     0.613780 Pb Pb2
    0.000000     0.000000     0.221689 Sr Sr1
    0.000000     0.000000     0.778311 Sr Sr2
