# Generated by Catalysthub (Web: http://www.catalysthub.net/)
data_Cu3EuO8Pb2Sr2 
_symmetry_space_group_name_H-M          'P 1'
_cell_length_a      3.655674 
_cell_length_b      3.655674 
_cell_length_c     15.218346 
_cell_angle_alpha     90.000000 
_cell_angle_beta     90.000000 
_cell_angle_gamma     89.830059 
loop_ 
  _space_group_symop_operation_xyz 
  'x, y, z' 
loop_ 
  _atom_site_fract_x
  _atom_site_fract_y
  _atom_site_fract_z
  _atom_site_type_symbol
  _atom_site_label
    0.499999     0.499999     0.103520 Cu Cu1
    0.499999     0.499999     0.896480 Cu Cu2
    0.000000     0.000000     0.500000 Cu Cu3
    0.000000     0.000000     0.000000 Eu Eu1
    0.500000    -0.000001     0.101796 O O1
   -0.000001     0.500000     0.898204 O O2
    0.500000    -0.000001     0.898204 O O3
   -0.000001     0.500000     0.101796 O O4
    0.000000     0.000000     0.380949 O O5
    0.000000     0.000000     0.619051 O O6
    0.499999     0.499999     0.251839 O O7
    0.499999     0.499999     0.748161 O O8
    0.499999     0.499999     0.389775 Pb Pb1
    0.499999     0.499999     0.610225 Pb Pb2
    0.000000     0.000000     0.219133 Sr Sr1
    0.000000     0.000000     0.780867 Sr Sr2
