# Generated by Catalysthub (Web: http://www.catalysthub.net/)
data_Cu6O16Pb4Sr4Y2 
_symmetry_space_group_name_H-M          'P 1'
_cell_length_a     14.364046 
_cell_length_b      5.145277 
_cell_length_c      5.090263 
_cell_angle_alpha     90.000000 
_cell_angle_beta     90.000000 
_cell_angle_gamma     90.000000 
loop_ 
  _space_group_symop_operation_xyz 
  'x, y, z' 
loop_ 
  _atom_site_fract_x
  _atom_site_fract_y
  _atom_site_fract_z
  _atom_site_type_symbol
  _atom_site_label
    0.500000     0.250000     0.247288 Cu Cu1
    0.105569     0.749794     0.250115 Cu Cu2
    0.894430     0.750204     0.250115 Cu Cu3
    0.105569     0.250204     0.749887 Cu Cu4
    0.894430     0.249796     0.749887 Cu Cu5
    0.500000     0.750000     0.752712 Cu Cu6
    0.097253     0.000000     0.000000 O O1
    0.903116     0.000000     0.000000 O O2
    0.096884     0.500000     0.000000 O O3
    0.902746     0.500000     0.000000 O O4
    0.379689     0.188038     0.217621 O O5
    0.620311     0.311962     0.217621 O O6
    0.249204     0.744722     0.252678 O O7
    0.750796     0.755279     0.252678 O O8
    0.097143     0.000000     0.500000 O O9
    0.903466     0.000000     0.500000 O O10
    0.096533     0.500000     0.500000 O O11
    0.902857     0.500000     0.500000 O O12
    0.249204     0.255279     0.747321 O O13
    0.750796     0.244722     0.747321 O O14
    0.620311     0.688039     0.782378 O O15
    0.379689     0.811962     0.782378 O O16
    0.394351     0.735165     0.256560 Pb Pb1
    0.605650     0.764835     0.256560 Pb Pb2
    0.394351     0.264835     0.743441 Pb Pb3
    0.605650     0.235165     0.743441 Pb Pb4
    0.223617     0.249446     0.250060 Sr Sr1
    0.776384     0.250554     0.250060 Sr Sr2
    0.223617     0.750554     0.749942 Sr Sr3
    0.776384     0.749445     0.749942 Sr Sr4
    0.000000     0.250000     0.249875 Y Y1
    0.000000     0.750000     0.750124 Y Y2
