# Generated by Catalysthub (Web: http://www.catalysthub.net/)
data_Fe2La2O2P2 
_symmetry_space_group_name_H-M          'P 1'
_cell_length_a      3.946829 
_cell_length_b      3.946829 
_cell_length_c      8.356945 
_cell_angle_alpha     90.000000 
_cell_angle_beta     90.000000 
_cell_angle_gamma     90.000000 
loop_ 
  _space_group_symop_operation_xyz 
  'x, y, z' 
loop_ 
  _atom_site_fract_x
  _atom_site_fract_y
  _atom_site_fract_z
  _atom_site_type_symbol
  _atom_site_label
    0.750000     0.250001     0.500000 Fe Fe1
    0.250001     0.750000     0.500000 Fe Fe2
    0.750000     0.750000     0.852526 La La1
    0.250001     0.250001     0.147474 La La2
    0.250001     0.750000     0.000000 O O1
    0.750000     0.250001     0.000000 O O2
    0.750000     0.750000     0.337873 P P1
    0.250001     0.250001     0.662127 P P2
