# Generated by Catalysthub (Web: http://www.catalysthub.net/)
data_As8Nb24 
_symmetry_space_group_name_H-M          'P 1'
_cell_length_a     10.294000 
_cell_length_b     10.294000 
_cell_length_c      5.199000 
_cell_angle_alpha     90.000000 
_cell_angle_beta     90.000000 
_cell_angle_gamma     90.000000 
loop_ 
  _space_group_symop_operation_xyz 
  'x, y, z' 
loop_ 
  _atom_site_fract_x
  _atom_site_fract_y
  _atom_site_fract_z
  _atom_site_type_symbol
  _atom_site_label
    0.043000     0.271400     0.020300 As As1
    0.457000     0.228600     0.020300 As As2
    0.728600     0.543000     0.520300 As As3
    0.771400     0.957000     0.520300 As As4
    0.957000     0.728600     0.979700 As As5
    0.543000     0.771400     0.979700 As As6
    0.271400     0.457000     0.479700 As As7
    0.228600     0.043000     0.479700 As As8
    0.056200     0.536400     0.241100 Nb Nb1
    0.443800     0.963600     0.241100 Nb Nb2
    0.463600     0.556200     0.741100 Nb Nb3
    0.036400     0.943800     0.741100 Nb Nb4
    0.943800     0.463600     0.758900 Nb Nb5
    0.556200     0.036400     0.758900 Nb Nb6
    0.536400     0.443800     0.258900 Nb Nb7
    0.963600     0.056200     0.258900 Nb Nb8
    0.102100     0.261700     0.518100 Nb Nb9
    0.397900     0.238300     0.518100 Nb Nb10
    0.738300     0.602100     0.018100 Nb Nb11
    0.761700     0.897900     0.018100 Nb Nb12
    0.897900     0.738300     0.481900 Nb Nb13
    0.602100     0.761700     0.481900 Nb Nb14
    0.261700     0.397900     0.981900 Nb Nb15
    0.238300     0.102100     0.981900 Nb Nb16
    0.165200     0.655400     0.727199 Nb Nb17
    0.334800     0.844600     0.727199 Nb Nb18
    0.344600     0.665200     0.227199 Nb Nb19
    0.155400     0.834800     0.227199 Nb Nb20
    0.834800     0.344600     0.272801 Nb Nb21
    0.665200     0.155400     0.272801 Nb Nb22
    0.655400     0.334800     0.772801 Nb Nb23
    0.844600     0.165200     0.772801 Nb Nb24
