# Generated by Catalysthub (Web: http://www.catalysthub.net/)
data_Ba2Cu3O7Pr 
_symmetry_space_group_name_H-M          'P 1'
_cell_length_a      3.866414 
_cell_length_b      3.923243 
_cell_length_c     11.726689 
_cell_angle_alpha     90.000000 
_cell_angle_beta     90.000000 
_cell_angle_gamma     90.000000 
loop_ 
  _space_group_symop_operation_xyz 
  'x, y, z' 
loop_ 
  _atom_site_fract_x
  _atom_site_fract_y
  _atom_site_fract_z
  _atom_site_type_symbol
  _atom_site_label
    0.500001     0.500000     0.180604 Ba Ba1
    0.500001     0.500000     0.819396 Ba Ba2
    0.000000     0.000000     0.000000 Cu Cu1
    0.000000     0.000000     0.347808 Cu Cu2
    0.000000     0.000000     0.652192 Cu Cu3
    0.000000     0.500000     0.000000 O O1
    0.000000     0.000000     0.157019 O O2
    0.500001     0.000000     0.369032 O O3
    0.000000     0.500000     0.369089 O O4
    0.000000     0.500000     0.630911 O O5
    0.500001     0.000000     0.630968 O O6
    0.000000     0.000000     0.842981 O O7
    0.500001     0.500000     0.500000 Pr Pr1
