# Generated by Catalysthub (Web: http://www.catalysthub.net/)
data_Fe2O2P2Pr2 
_symmetry_space_group_name_H-M          'P 1'
_cell_length_a      3.988670 
_cell_length_b      3.988670 
_cell_length_c      8.807632 
_cell_angle_alpha     90.000000 
_cell_angle_beta     90.000000 
_cell_angle_gamma     90.000000 
loop_ 
  _space_group_symop_operation_xyz 
  'x, y, z' 
loop_ 
  _atom_site_fract_x
  _atom_site_fract_y
  _atom_site_fract_z
  _atom_site_type_symbol
  _atom_site_label
    0.749999     0.250001     0.500000 Fe Fe1
    0.250001     0.749999     0.500000 Fe Fe2
    0.749999     0.250001     0.000000 O O1
    0.250001     0.749999     0.000000 O O2
    0.749999     0.749999     0.334469 P P1
    0.250001     0.250001     0.665531 P P2
    0.250001     0.250001     0.139057 Pr Pr1
    0.749999     0.749999     0.860943 Pr Pr2
