# Generated by Catalysthub (Web: http://www.catalysthub.net/)
data_Fe2O6P2Sc2Sr4 
_symmetry_space_group_name_H-M          'P 1'
_cell_length_a      4.016000 
_cell_length_b      4.016000 
_cell_length_c     15.543000 
_cell_angle_alpha     90.000000 
_cell_angle_beta     90.000000 
_cell_angle_gamma     90.000000 
loop_ 
  _space_group_symop_operation_xyz 
  'x, y, z' 
loop_ 
  _atom_site_fract_x
  _atom_site_fract_y
  _atom_site_fract_z
  _atom_site_type_symbol
  _atom_site_label
    0.250000     0.750000     0.000000 Fe Fe1
    0.750000     0.250000     0.000000 Fe Fe2
    0.250000     0.250000     0.428800 O O1
    0.750000     0.750000     0.571200 O O2
    0.250000     0.750000     0.283600 O O3
    0.750000     0.250000     0.716400 O O4
    0.250000     0.750000     0.716400 O O5
    0.750000     0.250000     0.283600 O O6
    0.250000     0.250000     0.077100 P P1
    0.750000     0.750000     0.922900 P P2
    0.250000     0.250000     0.302600 Sc Sc1
    0.750000     0.750000     0.697400 Sc Sc2
    0.750000     0.750000     0.414600 Sr Sr1
    0.250000     0.250000     0.585400 Sr Sr2
    0.750000     0.750000     0.181700 Sr Sr3
    0.250000     0.250000     0.818300 Sr Sr4
