# Generated by Catalysthub (Web: http://www.catalysthub.net/)
data_Fe2Si2Y 
_symmetry_space_group_name_H-M          'P 1'
_cell_length_a      3.937375 
_cell_length_b      3.937375 
_cell_length_c      5.554035 
_cell_angle_alpha    110.760394 
_cell_angle_beta    110.760394 
_cell_angle_gamma     90.000000 
loop_ 
  _space_group_symop_operation_xyz 
  'x, y, z' 
loop_ 
  _atom_site_fract_x
  _atom_site_fract_y
  _atom_site_fract_z
  _atom_site_type_symbol
  _atom_site_label
    0.750001     0.250000     0.500001 Fe Fe1
    0.250000     0.750001     0.500001 Fe Fe2
    0.632852     0.632852     0.265703 Si Si1
    0.367148     0.367148     0.734296 Si Si2
    0.000000     0.000000     0.000000 Y Y1
