# Generated by Catalysthub (Web: http://www.catalysthub.net/)
data_Fe4LaP12 
_symmetry_space_group_name_H-M          'P 1'
_cell_length_a      6.689180 
_cell_length_b      6.689180 
_cell_length_c      6.689180 
_cell_angle_alpha    109.471221 
_cell_angle_beta    109.471221 
_cell_angle_gamma    109.471221 
loop_ 
  _space_group_symop_operation_xyz 
  'x, y, z' 
loop_ 
  _atom_site_fract_x
  _atom_site_fract_y
  _atom_site_fract_z
  _atom_site_type_symbol
  _atom_site_label
    0.500000     0.500000     0.500000 Fe Fe1
    0.000000     0.000000     0.500000 Fe Fe2
    0.500000     0.000000     0.000000 Fe Fe3
    0.000000     0.500000     0.000000 Fe Fe4
    0.000000     0.000000     0.000000 La La1
    0.506999     0.154300     0.352699 P P1
    0.801600     0.154300     0.647301 P P2
    0.493001     0.845700     0.647301 P P3
    0.198400     0.845700     0.352699 P P4
    0.352699     0.506999     0.154300 P P5
    0.154300     0.352699     0.506999 P P6
    0.352699     0.198400     0.845700 P P7
    0.154300     0.647301     0.801600 P P8
    0.647301     0.801600     0.154300 P P9
    0.845700     0.647301     0.493001 P P10
    0.647301     0.493001     0.845700 P P11
    0.845700     0.352699     0.198400 P P12
