# Generated by Catalysthub (Web: http://www.catalysthub.net/)
data_As3Os3Zr3 
_symmetry_space_group_name_H-M          'P 1'
_cell_length_a      6.619942 
_cell_length_b      6.619942 
_cell_length_c      3.966434 
_cell_angle_alpha     90.000000 
_cell_angle_beta     90.000000 
_cell_angle_gamma    119.999864 
loop_ 
  _space_group_symop_operation_xyz 
  'x, y, z' 
loop_ 
  _atom_site_fract_x
  _atom_site_fract_y
  _atom_site_fract_z
  _atom_site_type_symbol
  _atom_site_label
    0.666681     0.333356     0.000000 As As1
    0.333356     0.666681     0.000000 As As2
    0.000001     0.000002     0.500001 As As3
    0.243902     0.000012     0.000000 Os Os1
    0.000012     0.243902     0.000000 Os Os2
    0.756129     0.756128     0.000000 Os Os3
    0.582119     0.000017     0.500001 Zr Zr1
    0.417885     0.417884     0.500001 Zr Zr2
    0.000017     0.582119     0.500001 Zr Zr3
