# Generated by Catalysthub (Web: http://www.catalysthub.net/)
data_GaNb4Se8 
_symmetry_space_group_name_H-M          'P 1'
_cell_length_a      7.368053 
_cell_length_b      7.368053 
_cell_length_c      7.368053 
_cell_angle_alpha     60.000000 
_cell_angle_beta     60.000000 
_cell_angle_gamma     60.000000 
loop_ 
  _space_group_symop_operation_xyz 
  'x, y, z' 
loop_ 
  _atom_site_fract_x
  _atom_site_fract_y
  _atom_site_fract_z
  _atom_site_type_symbol
  _atom_site_label
    0.000000     0.000000     0.000000 Ga Ga1
    0.396900     0.396900     0.396900 Nb Nb1
    0.396900     0.396900     0.809299 Nb Nb2
    0.809299     0.396900     0.396900 Nb Nb3
    0.396900     0.809299     0.396900 Nb Nb4
    0.134400     0.134400     0.134400 Se Se1
    0.134400     0.134400     0.596799 Se Se2
    0.596799     0.134400     0.134400 Se Se3
    0.134400     0.596799     0.134400 Se Se4
    0.635700     0.635700     0.635700 Se Se5
    0.635700     0.635700     0.092901 Se Se6
    0.092901     0.635700     0.635700 Se Se7
    0.635700     0.092901     0.635700 Se Se8
