# Generated by Catalysthub (Web: http://www.catalysthub.net/)
data_Ba2Cu3O7Y 
_symmetry_space_group_name_H-M          'P 1'
_cell_length_a      3.814106 
_cell_length_b      3.885518 
_cell_length_c     11.640848 
_cell_angle_alpha     90.000000 
_cell_angle_beta     90.000000 
_cell_angle_gamma     90.000000 
loop_ 
  _space_group_symop_operation_xyz 
  'x, y, z' 
loop_ 
  _atom_site_fract_x
  _atom_site_fract_y
  _atom_site_fract_z
  _atom_site_type_symbol
  _atom_site_label
    0.499999     0.500000     0.182088 Ba Ba1
    0.499999     0.500000     0.817912 Ba Ba2
    0.000000     0.000000     0.000000 Cu Cu1
    0.000000     0.000000     0.354753 Cu Cu2
    0.000000     0.000000     0.645247 Cu Cu3
    0.000000     0.500000     0.000000 O O1
    0.000000     0.000000     0.159073 O O2
    0.000000     0.500000     0.377410 O O3
    0.499999     0.000000     0.378006 O O4
    0.499999     0.000000     0.621994 O O5
    0.000000     0.500000     0.622590 O O6
    0.000000     0.000000     0.840927 O O7
    0.499999     0.500000     0.500000 Y Y1
