# Generated by Catalysthub (Web: http://www.catalysthub.net/)
data_GaSe8Ta4 
_symmetry_space_group_name_H-M          'P 1'
_cell_length_a      7.327818 
_cell_length_b      7.327818 
_cell_length_c      7.327818 
_cell_angle_alpha     60.000000 
_cell_angle_beta     60.000000 
_cell_angle_gamma     60.000000 
loop_ 
  _space_group_symop_operation_xyz 
  'x, y, z' 
loop_ 
  _atom_site_fract_x
  _atom_site_fract_y
  _atom_site_fract_z
  _atom_site_type_symbol
  _atom_site_label
    0.000000     0.000000     0.000000 Ga Ga1
    0.865090     0.865090     0.404731 Se Se1
    0.865090     0.865090     0.865090 Se Se2
    0.865090     0.404731     0.865090 Se Se3
    0.404731     0.865090     0.865090 Se Se4
    0.363740     0.908781     0.363740 Se Se5
    0.908781     0.363740     0.363740 Se Se6
    0.363740     0.363740     0.908781 Se Se7
    0.363740     0.363740     0.363740 Se Se8
    0.602520     0.602520     0.602520 Ta Ta1
    0.602520     0.602520     0.192439 Ta Ta2
    0.192439     0.602520     0.602520 Ta Ta3
    0.602520     0.192439     0.602520 Ta Ta4
