# Generated by Catalysthub (Web: http://www.catalysthub.net/)
data_Ga3Lu 
_symmetry_space_group_name_H-M          'P 1'
_cell_length_a      4.201319 
_cell_length_b      4.201319 
_cell_length_c      4.201319 
_cell_angle_alpha     90.000000 
_cell_angle_beta     90.000000 
_cell_angle_gamma     90.000000 
loop_ 
  _space_group_symop_operation_xyz 
  'x, y, z' 
loop_ 
  _atom_site_fract_x
  _atom_site_fract_y
  _atom_site_fract_z
  _atom_site_type_symbol
  _atom_site_label
    0.500000     0.500000     0.000000 Ga Ga1
    0.500000     0.000000     0.500000 Ga Ga2
    0.000000     0.500000     0.500000 Ga Ga3
    0.000000     0.000000     0.000000 Lu Lu1
