# Generated by Catalysthub (Web: http://www.catalysthub.net/)
data_Ge4Ir4 
_symmetry_space_group_name_H-M          'P 1'
_cell_length_a      5.616709 
_cell_length_b      3.604358 
_cell_length_c      6.312778 
_cell_angle_alpha     90.000000 
_cell_angle_beta     90.000000 
_cell_angle_gamma     90.000000 
loop_ 
  _space_group_symop_operation_xyz 
  'x, y, z' 
loop_ 
  _atom_site_fract_x
  _atom_site_fract_y
  _atom_site_fract_z
  _atom_site_type_symbol
  _atom_site_label
    0.308777     0.750000     0.078793 Ge Ge1
    0.808778     0.750000     0.421208 Ge Ge2
    0.191222     0.250000     0.578793 Ge Ge3
    0.691223     0.250000     0.921208 Ge Ge4
    0.003265     0.250000     0.206822 Ir Ir1
    0.503264     0.250000     0.293178 Ir Ir2
    0.496734     0.750000     0.706822 Ir Ir3
    0.996735     0.750000     0.793179 Ir Ir4
