# Generated by Catalysthub (Web: http://www.catalysthub.net/)
data_La12Ge4 
_symmetry_space_group_name_H-M          'P 1'
_cell_length_a      7.416000 
_cell_length_b      9.954000 
_cell_length_c      6.497000 
_cell_angle_alpha     90.000000 
_cell_angle_beta     90.000000 
_cell_angle_gamma     90.000000 
loop_ 
  _space_group_symop_operation_xyz 
  'x, y, z' 
loop_ 
  _atom_site_fract_x
  _atom_site_fract_y
  _atom_site_fract_z
  _atom_site_type_symbol
  _atom_site_label
    0.676000     0.069000     0.331000 La La1
    0.176000     0.431000     0.169000 La La2
    0.324000     0.569000     0.669000 La La3
    0.824000     0.931000     0.831000 La La4
    0.324000     0.931000     0.669000 La La5
    0.824000     0.569000     0.831000 La La6
    0.676000     0.431000     0.331000 La La7
    0.176000     0.069000     0.169000 La La8
    0.542000     0.250000     0.850000 La La9
    0.042000     0.250000     0.650000 La La10
    0.458000     0.750000     0.150000 La La11
    0.958000     0.750000     0.350000 La La12
    0.880000     0.250000     0.059000 Ge Ge1
    0.380000     0.250000     0.441000 Ge Ge2
    0.120000     0.750000     0.941000 Ge Ge3
    0.620000     0.750000     0.559000 Ge Ge4
