# Generated by Catalysthub (Web: http://www.catalysthub.net/)
data_Ge8Ta24 
_symmetry_space_group_name_H-M          'P 1'
_cell_length_a     10.271000 
_cell_length_b     10.271000 
_cell_length_c      5.215000 
_cell_angle_alpha     90.000000 
_cell_angle_beta     90.000000 
_cell_angle_gamma     90.000000 
loop_ 
  _space_group_symop_operation_xyz 
  'x, y, z' 
loop_ 
  _atom_site_fract_x
  _atom_site_fract_y
  _atom_site_fract_z
  _atom_site_type_symbol
  _atom_site_label
    0.023200     0.790900     0.270700 Ge Ge1
    0.976800     0.209100     0.270700 Ge Ge2
    0.290900     0.476800     0.770700 Ge Ge3
    0.709100     0.523200     0.770700 Ge Ge4
    0.476800     0.709100     0.229300 Ge Ge5
    0.523200     0.290900     0.229300 Ge Ge6
    0.209100     0.023200     0.729300 Ge Ge7
    0.790900     0.976800     0.729300 Ge Ge8
    0.584800     0.898600     0.469400 Ta Ta1
    0.415200     0.101400     0.469400 Ta Ta2
    0.398600     0.915200     0.969400 Ta Ta3
    0.601400     0.084800     0.969400 Ta Ta4
    0.915200     0.601400     0.030600 Ta Ta5
    0.084800     0.398600     0.030600 Ta Ta6
    0.101400     0.584800     0.530600 Ta Ta7
    0.898600     0.415200     0.530600 Ta Ta8
    0.015700     0.852000     0.770600 Ta Ta9
    0.984300     0.148000     0.770600 Ta Ta10
    0.352000     0.484300     0.270600 Ta Ta11
    0.852000     0.984300     0.229400 Ta Ta12
    0.312600     0.212600     0.990700 Ta Ta13
    0.687400     0.787400     0.990700 Ta Ta14
    0.287400     0.812600     0.490700 Ta Ta15
    0.712600     0.187400     0.490700 Ta Ta16
    0.812600     0.712600     0.509300 Ta Ta17
    0.187400     0.287400     0.509300 Ta Ta18
    0.212600     0.687400     0.009300 Ta Ta19
    0.787400     0.312600     0.009300 Ta Ta20
    0.648000     0.515700     0.270600 Ta Ta21
    0.484300     0.648000     0.729400 Ta Ta22
    0.515700     0.352000     0.729400 Ta Ta23
    0.148000     0.015700     0.229400 Ta Ta24
